2023-08-21T13:42:41,573  INFO Gbl:64 JVM: 17.0.5; Oracle Corporation; mixed mode, sharing; 64-bit
2023-08-21T13:42:41,574  INFO Gbl:68 OS: Mac OS X; 13.4.1; aarch64
2023-08-21T13:42:41,574  INFO Gbl:71 CPU cores: 8
2023-08-21T13:42:41,575  INFO Gbl:72 max. Memory: 4096.0MB (4294967296B)
2023-08-21T13:42:41,575  INFO Gbl:110 MATSim-Build: ra76d70e12c1ca93f702007bdf2cc365001d5f50e (2023-04-12 08:36:22)
2023-08-21T13:42:41,577  INFO ControlerListenerManagerImpl:108 calling notifyStartup on org.matsim.core.controler.ControlerDefaultsModule$1
2023-08-21T13:42:41,578  INFO MemoryObserver:42 used RAM: 216 MB  free: 161 MB  total: 378 MB
2023-08-21T13:42:41,587  INFO ControlerListenerManagerImpl:108 calling notifyStartup on org.matsim.guice.DependencyGraphControlerListener
2023-08-21T13:42:41,648  INFO ControlerListenerManagerImpl:108 calling notifyStartup on org.matsim.counts.CountsControlerListener
2023-08-21T13:42:41,648  INFO ControlerListenerManagerImpl:108 calling notifyStartup on org.matsim.analysis.ModeStatsControlerListener
2023-08-21T13:42:41,648  INFO ControlerListenerManagerImpl:108 calling notifyStartup on org.matsim.analysis.ScoreStatsControlerListener
2023-08-21T13:42:41,648  INFO ControlerListenerManagerImpl:111 all ControlerStartupListeners called.
2023-08-21T13:42:41,649  INFO ControlerUtils:80 config dump before iterations start
2023-08-21T13:42:41,656  INFO ControlerUtils:84 

<?xml version="1.0" encoding="UTF-8"?>
<!DOCTYPE config SYSTEM "http://www.matsim.org/files/dtd/config_v2.dtd">
<config>
	<module name="JDEQSim" >
		<param name="carSize" value="7.5" />
		<param name="endTime" value="undefined" />
		<param name="flowCapacityFactor" value="1.0" />
		<param name="gapTravelSpeed" value="15.0" />
		<param name="minimumInFlowCapacity" value="1800.0" />
		<param name="squeezeTime" value="1800.0" />
		<param name="storageCapacityFactor" value="1.0" />
	</module>
	<module name="ReplanningAnnealer" >
		<!-- Activate the scaling of replanning modules using an annealing approach rather than fixed rates. -->
		<param name="activateAnnealingModule" value="false" />
	</module>
	<module name="TimeAllocationMutator" >
		<!-- Default:true; Defines whether time mutation changes an activity's duration. -->
		<param name="mutationAffectsDuration" value="true" />
		<!-- Default:1800.0; Defines how many seconds a time mutation can maximally shift a time. -->
		<param name="mutationRange" value="3600.0" />
	</module>
	<module name="changeMode" >
		<!-- Defines whether car availability is considered be considered or not. An agent has no car only if it has no license, or never access to a car. Default: true -->
		<param name="ignoreCarAvailability" value="true" />
		<!-- Defines the mode switch behavior. Possible values [fromAllModesToSpecifiedModes, fromSpecifiedModesToSpecifiedModes] Default: fromSpecifiedModesToSpecifiedModes. -->
		<param name="modeSwitchBehavior" value="fromSpecifiedModesToSpecifiedModes" />
		<!-- Defines all the modes available, including chain-based modes, seperated by commas -->
		<param name="modes" value="car,pt" />
	</module>
	<module name="controler" >
		<!-- Defines what should be done with the ITERS directory when a simulation finished successfully -->
		<param name="cleanItersAtEnd" value="keep" />
		<!-- Compression algorithm to use when writing out data to files. Possible values: [none, gzip, lz4, zst] -->
		<param name="compressionType" value="gzip" />
		<!-- Sets whether graphs showing some analyses should automatically be generated during the simulation. The generation of graphs usually takes a small amount of time that does not have any weight in big simulations, but add a significant overhead in smaller runs or in test cases where the graphical output is not even requested. -->
		<param name="createGraphs" value="true" />
		<!-- Defines when the scoring functions for the population are created. Default=IterationStarts. Possible values: [IterationStarts, BeforeMobsim] -->
		<param name="createScoringFunctionType" value="IterationStarts" />
		<!-- true if at the end of a run, plans, network, config etc should be dumped to a file -->
		<param name="dumpDataAtEnd" value="true" />
		<!-- Default=false. If enabled, the router takes travel times needed for turning moves into account. Cannot be used if the (Fast)AStarLandmarks routing or TravelTimeCalculator.separateModes is enabled. -->
		<param name="enableLinkToLinkRouting" value="false" />
		<!-- Default=xml; Specifies the file format for writing events. Currently supported: [xml, pb, json]
		Multiple values can be specified separated by commas (','). -->
		<param name="eventsFileFormat" value="xml" />
		<!-- Default=0. First Iteration of a simulation. -->
		<param name="firstIteration" value="0" />
		<!-- Default=1000. Last Iteration of a simulation. -->
		<param name="lastIteration" value="150" />
		<!-- Defines which mobility simulation will be used. Currently supported: qsim JDEQSim hermes 
		Depending on the chosen mobsim, you'll have to add additional config modules to configure the corresponding mobsim.
		For 'qsim', add a module 'qsim' to the config. -->
		<param name="mobsim" value="qsim" />
		<param name="outputDirectory" value="output_2/" />
		<!-- Possible values: failIfDirectoryExists,overwriteExistingFiles,deleteDirectoryIfExists -->
		<param name="overwriteFiles" value="deleteDirectoryIfExists" />
		<!-- The type of routing (least cost path) algorithm used, may have the values: [Dijkstra, AStarLandmarks, FastDijkstra, FastAStarLandmarks, SpeedyALT] -->
		<param name="routingAlgorithmType" value="Dijkstra" />
		<!-- An identifier for the current run which is used as prefix for output files and mentioned in output xml files etc. -->
		<param name="runId" value="run0" />
		<!-- Comma-separated list of visualizer output file formats. `transims' and `otfvis'. -->
		<param name="snapshotFormat" value="" />
		<!-- iterationNumber % writeEventsInterval == 0 defines in which iterations events are written to a file. `0' disables events writing completely. -->
		<param name="writeEventsInterval" value="1000" />
		<!-- iterationNumber % writePlansInterval == 0 defines (hopefully) in which iterations plans are written to a file. `0' disables plans writing completely.  Some plans in early iterations are always written -->
		<param name="writePlansInterval" value="1000" />
		<!-- iterationNumber % writeSnapshotsInterval == 0 defines in which iterations snapshots are written to a file. `0' disables snapshots writing completely -->
		<param name="writeSnapshotsInterval" value="1" />
		<!-- iterationNumber % writeEventsInterval == 0 defines in which iterations trips CSV are written to a file. `0' disables trips writing completely. -->
		<param name="writeTripsInterval" value="50" />
	</module>
	<module name="counts" >
		<!-- Transport modes that will be respected for the counts comparison. 'car' is default, which includes also bussed from the pt simulation module. Use this parameter in combination with 'filterModes' = true! -->
		<param name="analyzedModes" value="car" />
		<!-- Specifies over how many iterations the link volumes should be averaged that are used for the counts comparison. Use 1 or 0 to only use the link volumes of a single iteration. This values cannot be larger than the value specified for writeCountsInterval -->
		<param name="averageCountsOverIterations" value="5" />
		<!-- factor by which to re-scale the simulated values.  necessary when simulation runs with something different from 100%.  needs to be adapted manually -->
		<param name="countsScaleFactor" value="1.0" />
		<!-- distance to distanceFilterCenterNode to include counting stations. The unit of distance is the Euclidean distance implied by the coordinate system -->
		<param name="distanceFilter" value="null" />
		<!-- node id for center node of distance filter -->
		<param name="distanceFilterCenterNode" value="null" />
		<!-- If true, link counts from legs performed on modes not included in the 'analyzedModes' parameter are ignored. -->
		<param name="filterModes" value="false" />
		<!-- The Coordinates Reference System in which the coordinates are expressed in the input file. At import, the coordinates will be converted to the coordinate system defined in "global", and willbe converted back at export. If not specified, no conversion happens. -->
		<param name="inputCRS" value="null" />
		<!-- input file name to counts package -->
		<param name="inputCountsFile" value="null" />
		<!-- possible values: `html', `txt', `all' -->
		<param name="outputformat" value="txt" />
		<!-- Specifies how often the counts comparison should be calculated and written. -->
		<param name="writeCountsInterval" value="10" />
	</module>
	<module name="facilities" >
		<!-- This defines how facilities should be created. Possible values: none fromFile setInScenario onePerActivityLinkInPlansFile onePerActivityLinkInPlansFileExceptWhenCoordinatesAreGiven onePerActivityLocationInPlansFile  -->
		<param name="facilitiesSource" value="fromFile" />
		<!-- A prefix to be used for auto-generated IDs. -->
		<param name="idPrefix" value="f_auto_" />
		<!-- The Coordinates Reference System in which the coordinates are expressed in the input file. At import, the coordinates will be converted to the coordinate system defined in "global", and willbe converted back at export. If not specified, no conversion happens. -->
		<param name="inputCRS" value="null" />
		<param name="inputFacilitiesFile" value="siouxfalls-2014/Siouxfalls_facilities.xml.gz" />
		<param name="inputFacilityAttributesFile" value="null" />
		<param name="insistingOnUsingDeprecatedFacilitiesAttributeFile" value="false" />
	</module>
	<module name="global" >
		<param name="coordinateSystem" value="Atlantis" />
		<param name="defaultDelimiter" value=";" />
		<param name="insistingOnDeprecatedConfigVersion" value="true" />
		<!-- "global" number of threads.  This number is used, e.g., for replanning, but NOT in QSim.  This can typically be set to as many cores as you have available, or possibly even slightly more. -->
		<param name="numberOfThreads" value="40" />
		<param name="randomSeed" value="4711" />
	</module>
	<module name="hermes" >
		<!-- Simulation End Time -->
		<param name="endTime" value="30:00:00" />
		<param name="flowCapacityFactor" value="1.0" />
		<param name="mainMode" value="car" />
		<param name="storageCapacityFactor" value="1.0" />
		<!-- time in seconds.  Time after which the frontmost vehicle on a link is called `stuck' if it does not move. Set to Integer.MAX_VALUE to disable this behavior -->
		<param name="stuckTime" value="10" />
		<!-- treats PT as deterministic. PT vehicles will run with a steady speed. Should be used with separate network layers for PT and other network modes. -->
		<param name="useDeterministicPt" value="false" />
	</module>
	<module name="households" >
		<param name="inputFile" value="null" />
		<param name="inputHouseholdAttributesFile" value="null" />
		<param name="insistingOnUsingDeprecatedHouseholdsAttributeFile" value="false" />
	</module>
	<module name="linkStats" >
		<!-- Specifies over how many iterations the link volumes should be averaged that are used for the link statistics. Use 1 or 0 to only use the link volumes of a single iteration. This values cannot be larger than the value specified for writeLinkStatsInterval -->
		<param name="averageLinkStatsOverIterations" value="5" />
		<!-- Specifies how often the link stats should be calculated and written. Use 0 to disable the generation of link stats. -->
		<param name="writeLinkStatsInterval" value="50" />
	</module>
	<module name="network" >
		<!-- The Coordinates Reference System in which the coordinates are expressed in the input file. At import, the coordinates will be converted to the coordinate system defined in "global", and willbe converted back at export. If not specified, no conversion happens. -->
		<param name="inputCRS" value="null" />
		<param name="inputChangeEventsFile" value="null" />
		<param name="inputNetworkFile" value="siouxfalls-2014/Siouxfalls_network_PT.xml" />
		<param name="laneDefinitionsFile" value="null" />
		<param name="timeVariantNetwork" value="false" />
	</module>
	<module name="parallelEventHandling" >
		<!-- Estimated number of events during mobsim run. An optional optimization hint for the framework. -->
		<param name="estimatedNumberOfEvents" value="null" />
		<!-- Size of the events Queue. Increase for very large scenarios -->
		<param name="eventsQueueSize" value="131072" />
		<!-- Number of threads for parallel events handler. _null_ means the framework decides by itself. 0 is currently not possible. -->
		<param name="numberOfThreads" value="null" />
		<!-- If enabled, each event handler is assigned to its own thread. Note that enabling this feature disabled the numberOfThreads option! This feature is still experimental! -->
		<param name="oneThreadPerHandler" value="false" />
		<!-- If enabled, it is ensured that all events that are created during a time step of the mobility simulation are processed before the next time step is simulated. E.g. neccessary when within-day replanning is used. -->
		<param name="synchronizeOnSimSteps" value="true" />
	</module>
	<module name="planCalcScore" >
		<!-- logit model scale parameter. default: 1.  Has name and default value for historical reasons (see Bryan Raney's phd thesis). -->
		<param name="BrainExpBeta" value="1.0" />
		<param name="PathSizeLogitBeta" value="1.0" />
		<!-- fraction of iterations at which MSA score averaging is started. The matsim theory department suggests to use this together with switching off choice set innovation (where a similar switch exists), but it has not been tested yet. -->
		<param name="fractionOfIterationsToStartScoreMSA" value="1.0" />
		<!-- new_score = (1-learningRate)*old_score + learningRate * score_from_mobsim.  learning rates close to zero emulate score averaging, but slow down initial convergence -->
		<param name="learningRate" value="1.0" />
		<!-- There used to be a plateau between duration=0 and duration=zeroUtilityDuration. This caused durations to evolve to zero once they were below zeroUtilityDuration, causing problems.  Only use this switch if you need to be backwards compatible with some old results.  (changed nov'13) -->
		<param name="usingOldScoringBelowZeroUtilityDuration" value="false" />
		<!-- write a plans file in each iteration directory which contains what each agent actually did, and the score it received. -->
		<param name="writeExperiencedPlans" value="false" />
		<parameterset type="scoringParameters" >
			<param name="earlyDeparture" value="0.0" />
			<param name="lateArrival" value="0.0" />
			<param name="marginalUtilityOfMoney" value="0.062" />
			<param name="performing" value="0.96" />
			<param name="subpopulation" value="null" />
			<param name="utilityOfLineSwitch" value="0.0" />
			<param name="waiting" value="-0.0" />
			<param name="waitingPt" value="-0.18" />
			<parameterset type="activityParams" >
				<param name="activityType" value="home" />
				<param name="closingTime" value="undefined" />
				<param name="earliestEndTime" value="undefined" />
				<param name="latestStartTime" value="undefined" />
				<param name="minimalDuration" value="01:00:00" />
				<param name="openingTime" value="undefined" />
				<param name="priority" value="1.0" />
				<param name="scoringThisActivityAtAll" value="true" />
				<!-- typical duration of activity.  needs to be defined and non-zero.  in sec. -->
				<param name="typicalDuration" value="13:00:00" />
				<!-- method to compute score at typical duration.  Options: | uniform | relative | Use uniform for backwards compatibility (all activities same score; higher proba to drop long acts). -->
				<param name="typicalDurationScoreComputation" value="relative" />
			</parameterset>
			<parameterset type="activityParams" >
				<param name="activityType" value="work" />
				<param name="closingTime" value="18:00:00" />
				<param name="earliestEndTime" value="17:00:00" />
				<param name="latestStartTime" value="09:00:00" />
				<param name="minimalDuration" value="02:26:16" />
				<param name="openingTime" value="08:00:00" />
				<param name="priority" value="1.0" />
				<param name="scoringThisActivityAtAll" value="true" />
				<param name="typicalDuration" value="09:45:05" />
				<param name="typicalDurationScoreComputation" value="relative" />
			</parameterset>
			<parameterset type="activityParams" >
				<param name="activityType" value="secondary" />
				<param name="closingTime" value="20:00:00" />
				<param name="earliestEndTime" value="undefined" />
				<param name="latestStartTime" value="undefined" />
				<param name="minimalDuration" value="00:15:00" />
				<param name="openingTime" value="08:00:00" />
				<param name="priority" value="1.0" />
				<param name="scoringThisActivityAtAll" value="true" />
				<param name="typicalDuration" value="01:00:00" />
				<param name="typicalDurationScoreComputation" value="relative" />
			</parameterset>
			<parameterset type="activityParams" >
				<param name="activityType" value="car interaction" />
				<param name="closingTime" value="undefined" />
				<param name="earliestEndTime" value="undefined" />
				<param name="latestStartTime" value="undefined" />
				<param name="minimalDuration" value="undefined" />
				<param name="openingTime" value="undefined" />
				<param name="priority" value="1.0" />
				<param name="scoringThisActivityAtAll" value="false" />
				<param name="typicalDuration" value="undefined" />
				<param name="typicalDurationScoreComputation" value="relative" />
			</parameterset>
			<parameterset type="activityParams" >
				<param name="activityType" value="pt interaction" />
				<param name="closingTime" value="undefined" />
				<param name="earliestEndTime" value="undefined" />
				<param name="latestStartTime" value="undefined" />
				<param name="minimalDuration" value="undefined" />
				<param name="openingTime" value="undefined" />
				<param name="priority" value="1.0" />
				<param name="scoringThisActivityAtAll" value="false" />
				<param name="typicalDuration" value="undefined" />
				<param name="typicalDurationScoreComputation" value="relative" />
			</parameterset>
			<parameterset type="activityParams" >
				<param name="activityType" value="walk interaction" />
				<param name="closingTime" value="undefined" />
				<param name="earliestEndTime" value="undefined" />
				<param name="latestStartTime" value="undefined" />
				<param name="minimalDuration" value="undefined" />
				<param name="openingTime" value="undefined" />
				<param name="priority" value="1.0" />
				<param name="scoringThisActivityAtAll" value="false" />
				<param name="typicalDuration" value="undefined" />
				<param name="typicalDurationScoreComputation" value="relative" />
			</parameterset>
			<parameterset type="modeParams" >
				<!-- [utils] alternative-specific constant.  Normally per trip, but that is probably buggy for multi-leg trips. -->
				<param name="constant" value="-9.562" />
				<!-- [unit_of_money/day] Fixed cost of mode, per day. -->
				<param name="dailyMonetaryConstant" value="0.0" />
				<!-- [utils] daily utility constant. default=0 to be backwards compatible -->
				<param name="dailyUtilityConstant" value="0.0" />
				<!-- [utils/m] utility of traveling (e.g. walking or driving) per m, normally negative.  this is on top of the time (dis)utility. -->
				<param name="marginalUtilityOfDistance_util_m" value="0.0" />
				<!-- [utils/hr] additional marginal utility of traveling.  normally negative.  this comes on top of the opportunity cost of time -->
				<param name="marginalUtilityOfTraveling_util_hr" value="0.0" />
				<param name="mode" value="car" />
				<!-- [unit_of_money/m] conversion of distance into money. Normally negative. -->
				<param name="monetaryDistanceRate" value="-4.0E-4" />
			</parameterset>
			<parameterset type="modeParams" >
				<param name="constant" value="-3.354" />
				<param name="dailyMonetaryConstant" value="0.0" />
				<param name="dailyUtilityConstant" value="0.0" />
				<param name="marginalUtilityOfDistance_util_m" value="0.0" />
				<param name="marginalUtilityOfTraveling_util_hr" value="-0.18" />
				<param name="mode" value="pt" />
				<param name="monetaryDistanceRate" value="0.0" />
			</parameterset>
			<parameterset type="modeParams" >
				<param name="constant" value="-15.0" />
				<param name="dailyMonetaryConstant" value="0.0" />
				<param name="dailyUtilityConstant" value="0.0" />
				<param name="marginalUtilityOfDistance_util_m" value="0.0" />
				<param name="marginalUtilityOfTraveling_util_hr" value="-1.14" />
				<param name="mode" value="walk" />
				<param name="monetaryDistanceRate" value="0.0" />
			</parameterset>
		</parameterset>
	</module>
	<module name="plans" >
		<!-- String: minOfDurationAndEndTime tryEndTimeThenDuration endTimeOnly. Anything besides minOfDurationAndEndTime will internally use a different (simpler) version of the TimeAllocationMutator. -->
		<param name="activityDurationInterpretation" value="tryEndTimeThenDuration" />
		<!-- Possible values: reject,useMainModeIdentifier -->
		<param name="handlingOfPlansWithoutRoutingMode" value="reject" />
		<!-- The Coordinates Reference System in which the coordinates are expressed in the input file. At import, the coordinates will be converted to the coordinate system defined in "global", and willbe converted back at export. If not specified, no conversion happens. -->
		<param name="inputCRS" value="null" />
		<param name="inputPersonAttributesFile" value="null" />
		<param name="inputPlansFile" value="siouxfalls-2014/Siouxfalls_population.xml.gz" />
		<param name="insistingOnUsingDeprecatedPersonAttributeFile" value="false" />
		<!-- Defines how routes are stored in memory. Currently supported: LinkNetworkRoute, MediumCompressedNetworkRoute, HeavyCompressedNetworkRoute. -->
		<param name="networkRouteType" value="LinkNetworkRoute" />
		<!-- (not tested) will remove plan attributes that are presumably not used, such as activityStartTime. default=false. Use with Caution! -->
		<param name="removingUnnecessaryPlanAttributes" value="false" />
		<!-- Defines how departure times are interpreted in rerouting applications. If set to 'ignoreDelays', the departure time of a trip when routing along a plan will always be the nominal (plan-based) activity end time. If set to 'shiftActivityEndTimes', routing along a plan will accumulate travel times and shift activity end times if necessary -->
		<param name="tripDurationHandling" value="ignoreDelays" />
	</module>
	<module name="planscalcroute" >
		<!-- Defines how access and egress to main mode is simulated. Either of [none, accessEgressModeToLink, walkConstantTimeToLink, accessEgressModeToLinkPlusTimeConstant], Current default=none which means no access or egress trips are simulated. -->
		<param name="accessEgressType" value="none" />
		<!-- Some typical teleportation routing params are set by default, such as for walk and bike.  Setting this switch to "true" will clear them.  Note that this will also clear settings for helper modes such as for non_network_walk -->
		<param name="clearDefaultTeleportedModeParams" value="false" />
		<!-- All the modes for which the router is supposed to generate network routes (like car) -->
		<param name="networkModes" value="car" />
		<!-- strength of the randomness for the utility of money in routing under toll.  Leads to Pareto-optimal route with randomly drawn money-vs-other-attributes tradeoff. Technically the width parameter of a log-normal distribution. 3.0 seems to be a good value.  -->
		<param name="routingRandomness" value="3.0" />
		<parameterset type="teleportedModeParameters" >
			<param name="beelineDistanceFactor" value="1.3" />
			<param name="mode" value="bike" />
			<!-- Free-speed factor for a teleported mode. Travel time = teleportedModeFreespeedFactor * <freespeed car travel time>. Insert a line like this for every such mode. Please do not set teleportedModeFreespeedFactor as well as teleportedModeSpeed for the same mode, but if you do, +teleportedModeFreespeedFactor wins over teleportedModeSpeed. -->
			<param name="teleportedModeFreespeedFactor" value="null" />
			<!-- Speed for a teleported mode. Travel time = (<beeline distance> * beelineDistanceFactor) / teleportedModeSpeed. Insert a line like this for every such mode. -->
			<param name="teleportedModeSpeed" value="4.166666666666667" />
		</parameterset>
		<parameterset type="teleportedModeParameters" >
			<param name="beelineDistanceFactor" value="1.3" />
			<param name="mode" value="walk" />
			<param name="teleportedModeFreespeedFactor" value="null" />
			<param name="teleportedModeSpeed" value="0.8333333333333333" />
		</parameterset>
		<parameterset type="teleportedModeParameters" >
			<param name="beelineDistanceFactor" value="1.3" />
			<param name="mode" value="non_network_walk" />
			<param name="teleportedModeFreespeedFactor" value="null" />
			<param name="teleportedModeSpeed" value="0.8333333333333333" />
		</parameterset>
		<parameterset type="teleportedModeParameters" >
			<param name="beelineDistanceFactor" value="1.3" />
			<param name="mode" value="ride" />
			<param name="teleportedModeFreespeedFactor" value="1.0" />
			<param name="teleportedModeSpeed" value="null" />
		</parameterset>
		<parameterset type="teleportedModeParameters" >
			<param name="beelineDistanceFactor" value="1.3" />
			<param name="mode" value="pt" />
			<param name="teleportedModeFreespeedFactor" value="2.0" />
			<param name="teleportedModeSpeed" value="null" />
		</parameterset>
	</module>
	<module name="ptCounts" >
		<!-- factor by which to re-scale the simulated values.  necessary when simulation runs with something different from 100%.  needs to be adapted manually -->
		<param name="countsScaleFactor" value="1.0" />
		<!-- distance to distanceFilterCenterNode to include counting stations. The unit of distance is the Euclidean distance implied by the coordinate system -->
		<param name="distanceFilter" value="null" />
		<!-- node id for center node of distance filter -->
		<param name="distanceFilterCenterNode" value="null" />
		<!-- input file containing the alighting (getting off) counts for pt -->
		<param name="inputAlightCountsFile" value="null" />
		<!-- input file containing the boarding (getting on) counts for pt -->
		<param name="inputBoardCountsFile" value="null" />
		<!-- input file containing the occupancy counts for pt -->
		<param name="inputOccupancyCountsFile" value="null" />
		<!-- possible values: `html', `txt', `all' -->
		<param name="outputformat" value="null" />
		<!-- every how many iterations (starting with 0) counts comparisons are generated -->
		<param name="ptCountsInterval" value="10" />
	</module>
	<module name="qsim" >
		<param name="endTime" value="30:00:00" />
		<!-- If set to withLinkAttributes snapshots will only be generated for links which include generateSnapshotForLink as attribute key. Default is no filtering. -->
		<param name="filterSnapshots" value="no" />
		<param name="flowCapacityFactor" value="1.0" />
		<!-- decides if waiting vehicles enter the network after or before the already driving vehicles were moved. Default: false -->
		<param name="insertingWaitingVehiclesBeforeDrivingVehicles" value="true" />
		<!-- If link dynamics is set as SeepageQ, set to false if all seep modes should perform seepage. Default is true (better option). -->
		<param name="isRestrictingSeepage" value="true" />
		<!-- If link dynamics is set as SeepageQ, set to true if seep mode do not consumes any space on the link. Default is false. -->
		<param name="isSeepModeStorageFree" value="false" />
		<!-- default: FIFO; options: FIFO PassingQ SeepageQ -->
		<param name="linkDynamics" value="FIFO" />
		<!-- The (initial) width of the links of the network. Use positive floating point values. This is used only for visualisation. -->
		<param name="linkWidth" value="30.0" />
		<!-- [comma-separated list] Defines which modes are congested modes. Technically, these are the modes that the departure handler of the netsimengine handles.  Effective cell size, effective lane width, flow capacity factor, and storage capacity factor need to be set with diligence.  Need to be vehicular modes to make sense. -->
		<param name="mainMode" value="car" />
		<!-- Shortens a link in the visualization, i.e. its start and end point are moved into towards the center. Does not affect traffic flow.  -->
		<param name="nodeOffset" value="0.0" />
		<!-- Number of threads used for the QSim.  Note that this setting is independent from the "global" threads setting.  In contrast to earlier versions, the non-parallel special version is no longer there. -->
		<param name="numberOfThreads" value="40" />
		<!-- Boolean. `true': stuck vehicles are removed, aborting the plan; `false': stuck vehicles are forced into the next link. `false' is probably the better choice. -->
		<param name="removeStuckVehicles" value="false" />
		<!-- If link dynamics is set as SeepageQ, set a seep mode. Default is bike. -->
		<param name="seepMode" value="bike" />
		<!-- Possible values: minOfEndtimeAndMobsimFinished,onlyUseEndtime -->
		<param name="simEndtimeInterpretation" value="null" />
		<!-- Options: maxOfStarttimeAndEarliestActivityEnd onlyUseStarttime  -->
		<param name="simStarttimeInterpretation" value="maxOfStarttimeAndEarliestActivityEnd" />
		<!-- snapshotStyle. One of: equiDist queue withHoles withHolesAndShowHoles kinematicWaves  -->
		<param name="snapshotStyle" value="queue" />
		<param name="snapshotperiod" value="00:00:01" />
		<param name="startTime" value="00:00:00" />
		<param name="storageCapacityFactor" value="1.0" />
		<!-- time in seconds.  Time after which the frontmost vehicle on a link is called `stuck' if it does not move. -->
		<param name="stuckTime" value="3600.0" />
		<param name="timeStepSize" value="00:00:01" />
		<!-- options: queue withHoles kinematicWaves  -->
		<param name="trafficDynamics" value="queue" />
		<!-- Set this parameter to true if lanes should be used, false if not. -->
		<param name="useLanes" value="false" />
		<!-- If a route does not reference a vehicle, agents will use the vehicle with the same id as their own. -->
		<param name="usePersonIdForMissingVehicleId" value="true" />
		<!-- If false, the qsim accumulates fractional flows up to one flow unit in every time step.  If true, flows are updated only if an agent wants to enter the link or an agent is added to buffer. Default is true. -->
		<param name="usingFastCapacityUpdate" value="true" />
		<!-- Defines what happens if an agent wants to depart, but the specified vehicle is not available. One of: teleport wait exception  -->
		<param name="vehicleBehavior" value="teleport" />
		<!-- If vehicles should all be the same default vehicle, or come from the vehicles file, or something else.  Possible values:  defaultVehicle modeVehicleTypesFromVehiclesData fromVehiclesData -->
		<param name="vehiclesSource" value="defaultVehicle" />
	</module>
	<module name="strategy" >
		<!-- the external executable will be called with a config file as argument.  This is the pathname to a possible skeleton config, to which additional information will be added.  Can be null. -->
		<param name="ExternalExeConfigTemplate" value="null" />
		<!-- time out value (in seconds) after which matsim will consider the external strategy as failed -->
		<param name="ExternalExeTimeOut" value="3600" />
		<!-- root directory for temporary files generated by the external executable. Provided as a service; I don't think this is used by MATSim. -->
		<param name="ExternalExeTmpFileRootDir" value="null" />
		<!-- fraction of iterations where innovative strategies are switched off.  Something like 0.8 should be good.  E.g. if you run from iteration 400 to iteration 500, innovation is switched off at iteration 480 -->
		<param name="fractionOfIterationsToDisableInnovation" value="Infinity" />
		<!-- maximum number of plans per agent.  ``0'' means ``infinity''.  Currently (2010), ``5'' is a good number -->
		<param name="maxAgentPlanMemorySize" value="6" />
		<!-- strategyName of PlanSelector for plans removal.  Possible defaults: WorstPlanSelector SelectRandom SelectExpBetaForRemoval ChangeExpBetaForRemoval PathSizeLogitSelectorForRemoval . The current default, WorstPlanSelector is not a good choice from a discrete choice theoretical perspective. Alternatives, however, have not been systematically tested. kai, feb'12 -->
		<param name="planSelectorForRemoval" value="WorstPlanSelector" />
		<parameterset type="strategysettings" >
			<!-- iteration after which strategy will be disabled.  most useful for ``innovative'' strategies (new routes, new times, ...). Normally, better use fractionOfIterationsToDisableInnovation -->
			<param name="disableAfterIteration" value="-1" />
			<!-- path to external executable (if applicable) -->
			<param name="executionPath" value="null" />
			<!-- strategyName of strategy.  Possible default names: SelectRandom BestScore KeepLastSelected ChangeExpBeta SelectExpBeta SelectPathSizeLogit      (selectors), ReRouteTimeAllocationMutatorTimeAllocationMutator_ReRouteChangeSingleTripModeChangeTripModeSubtourModeChoice (innovative strategies). -->
			<param name="strategyName" value="ChangeExpBeta" />
			<!-- subpopulation to which the strategy applies. "null" refers to the default population, that is, the set of persons for which no explicit subpopulation is defined (ie no subpopulation attribute) -->
			<param name="subpopulation" value="null" />
			<!-- weight of a strategy: for each agent, a strategy will be selected with a probability proportional to its weight -->
			<param name="weight" value="0.7" />
		</parameterset>
		<parameterset type="strategysettings" >
			<param name="disableAfterIteration" value="2900" />
			<param name="executionPath" value="null" />
			<param name="strategyName" value="ReRoute" />
			<param name="subpopulation" value="null" />
			<param name="weight" value="0.01" />
		</parameterset>
		<parameterset type="strategysettings" >
			<param name="disableAfterIteration" value="2900" />
			<param name="executionPath" value="null" />
			<param name="strategyName" value="SubtourModeChoice" />
			<param name="subpopulation" value="null" />
			<param name="weight" value="0.01" />
		</parameterset>
		<parameterset type="strategysettings" >
			<param name="disableAfterIteration" value="2900" />
			<param name="executionPath" value="null" />
			<param name="strategyName" value="TimeAllocationMutator" />
			<param name="subpopulation" value="null" />
			<param name="weight" value="0.01" />
		</parameterset>
		<parameterset type="strategysettings" >
			<param name="disableAfterIteration" value="150" />
			<param name="executionPath" value="null" />
			<param name="strategyName" value="ChangeExpBeta" />
			<param name="subpopulation" value="null" />
			<param name="weight" value="0.7" />
		</parameterset>
		<parameterset type="strategysettings" >
			<param name="disableAfterIteration" value="-1" />
			<param name="executionPath" value="null" />
			<param name="strategyName" value="SubtourModeChoice" />
			<param name="subpopulation" value="null" />
			<param name="weight" value="0.1" />
		</parameterset>
		<parameterset type="strategysettings" >
			<param name="disableAfterIteration" value="-1" />
			<param name="executionPath" value="null" />
			<param name="strategyName" value="ReRoute" />
			<param name="subpopulation" value="null" />
			<param name="weight" value="0.1" />
		</parameterset>
		<parameterset type="strategysettings" >
			<param name="disableAfterIteration" value="-1" />
			<param name="executionPath" value="null" />
			<param name="strategyName" value="TimeAllocationMutator" />
			<param name="subpopulation" value="null" />
			<param name="weight" value="0.1" />
		</parameterset>
	</module>
	<module name="subtourModeChoice" >
		<!-- Only for backwards compatibility.  Defines if only trips from modes list should change mode, or all trips.  Options: fromAllModesToSpecifiedModes fromSpecifiedModesToSpecifiedModes betweenAllAndFewerConstraints  -->
		<param name="behavior" value="fromSpecifiedModesToSpecifiedModes" />
		<!-- Defines the chain-based modes, seperated by commas -->
		<param name="chainBasedModes" value="car" />
		<!-- Defines whether car availability must be considered or not. A agent has no car only if it has no license, or never access to a car -->
		<param name="considerCarAvailability" value="true" />
		<!-- If greater than 0, subtours will also consider coordinates to be at the same location when smaller than set distance. -->
		<param name="coordDistance" value="0.0" />
		<!-- Defines all the modes available, including chain-based modes, seperated by commas -->
		<param name="modes" value="car,pt,walk" />
		<!-- Defines the probability of changing a single trip for a unchained mode instead of subtour. -->
		<param name="probaForRandomSingleTripMode" value="0.0" />
	</module>
	<module name="swissRailRaptor" >
		<!-- Sets whether intermodal access and egress modes are selected by least cost (default) or randomly chosen out of the available access / egress modes. -->
		<param name="intermodalAccessEgressModeSelection" value="CalcLeastCostModePerStop" />
		<!-- Possible values: Default,Individual -->
		<param name="scoringParameters" value="Default" />
		<param name="transferPenaltyBaseCost" value="0.0" />
		<param name="transferPenaltyCostPerTravelTimeHour" value="0.0" />
		<param name="transferPenaltyMaxCost" value="Infinity" />
		<param name="transferPenaltyMinCost" value="-Infinity" />
		<!-- time deducted from transfer walk leg during transfers between pt legs in order to avoid missing a vehicle by a few seconds due to delays. -->
		<param name="transferWalkMargin" value="5.0" />
		<!-- If true, SwissRailRaptor tries to detect when agents cannot board a vehicle in the previous iteration because it is already full and tries to find an alternative route instead. -->
		<param name="useCapacityConstraints" value="false" />
		<param name="useIntermodalAccessEgress" value="false" />
		<param name="useModeMappingForPassengers" value="false" />
		<param name="useRangeQuery" value="false" />
	</module>
	<module name="transit" >
		<!-- The Coordinates Reference System in which the coordinates are expressed in the input file. At import, the coordinates will be converted to the coordinate system defined in "global", and willbe converted back at export. If not specified, no conversion happens. -->
		<param name="inputScheduleCRS" value="null" />
		<param name="insistingOnUsingDeprecatedAttributeFiles" value="false" />
		<!-- The type of transit routing algorithm used, may have the values: [DijkstraBased, SwissRailRaptor] -->
		<param name="routingAlgorithmType" value="SwissRailRaptor" />
		<!-- Optional input file containing additional attributes for transit lines, stored as ObjectAttributes. -->
		<param name="transitLinesAttributesFile" value="null" />
		<!-- Comma-separated list of transportation modes that are handled as transit. Defaults to 'pt'. -->
		<param name="transitModes" value="pt,bus" />
		<!-- Input file containing the transit schedule to be simulated. -->
		<param name="transitScheduleFile" value="siouxfalls-2014/Siouxfalls_transitSchedule.xml" />
		<!-- Optional input file containing additional attributes for transit stop facilities, stored as ObjectAttributes. -->
		<param name="transitStopsAttributesFile" value="null" />
		<!-- Set this parameter to true if transit should be simulated, false if not. -->
		<param name="useTransit" value="true" />
		<param name="usingTransitInMobsim" value="true" />
		<!-- Input file containing the vehicles used by the departures in the transit schedule. -->
		<param name="vehiclesFile" value="siouxfalls-2014/Siouxfalls_vehicles.xml" />
	</module>
	<module name="transitRouter" >
		<!-- additional time the router allocates when a line switch happens. Can be interpreted as a 'safety' time that agents need to safely transfer from one line to another -->
		<param name="additionalTransferTime" value="0.0" />
		<!-- Factor with which direct walk generalized cost is multiplied before it is compared to the pt generalized cost.  Set to a very high value to reduce direct walk results. -->
		<param name="directWalkFactor" value="1.0" />
		<!-- step size to increase searchRadius if no stops are found -->
		<param name="extensionRadius" value="500.0" />
		<!-- maximum beeline distance between stops that agents could transfer to by walking -->
		<param name="maxBeelineWalkConnectionDistance" value="300.0" />
		<!-- the radius in which stop locations are searched, given a start or target coordinate -->
		<param name="searchRadius" value="1500.0" />
	</module>
	<module name="travelTimeCalculator" >
		<!-- (only for backwards compatibility; only used if separateModes==false && + filterModes==true)  Transport modes that will be respected by the travel time collector. 'car' is default which includes also buses from the pt simulation module. -->
		<param name="analyzedModes" value="car" />
		<param name="calculateLinkToLinkTravelTimes" value="false" />
		<param name="calculateLinkTravelTimes" value="true" />
		<!-- (only for backwards compatiblity; only used if separateModes==false)  Only modes included in analyzedModes are included. -->
		<param name="filterModes" value="false" />
		<!-- The lenght (in sec) of the time period that is splited into time bins; an additional time bin is created to aggregate all travel times collected after maxTime -->
		<param name="maxTime" value="108000" />
		<!-- (only for backwards compatibility) If false, link travel times are measured and aggregated over all vehicles using the link. -->
		<param name="separateModes" value="true" />
		<!-- How to deal with congested time bins that have no link entry events. `optimistic' assumes free speed (too optimistic); 'experimental_LastMile' is experimental and probably too pessimistic. -->
		<param name="travelTimeAggregator" value="optimistic" />
		<!-- The size of the time bin (in sec) into which the link travel times are aggregated for the router -->
		<param name="travelTimeBinSize" value="900" />
		<!-- possible values: TravelTimeCalculatorArray TravelTimeCalculatorHashMap  -->
		<param name="travelTimeCalculator" value="TravelTimeCalculatorArray" />
		<!-- How to deal with link entry times at different positions during the time bin. Currently supported: average, linearinterpolation -->
		<param name="travelTimeGetter" value="average" />
	</module>
	<module name="vehicles" >
		<param name="vehiclesFile" value="null" />
	</module>
	<module name="vspExperimental" >
		<!-- (do not use except of you have to) There was a problem with pt interaction scoring.  Some people solved it by overwriting the parameters of the pt interaction activity type.  Doing this now throws an Exception.  If you still insist on doing this, set the following to true. -->
		<param name="isAbleToOverwritePtInteractionParams" value="false" />
		<param name="isGeneratingBoardingDeniedEvent" value="false" />
		<!-- if an approximation of the opportunity cost of time is included into the radius calculation for location choice.`true' will be faster, but it is an approximation.  Default is `true'; `false' is available for backwards compatibility. -->
		<param name="isUsingOpportunityCostOfTimeForLocationChoice" value="true" />
		<param name="logitScaleParamForPlansRemoval" value="1.0" />
		<!-- Options: | ignore | info | warn | abort | .  When violating VSP defaults, this results in nothing, logfile infos, logfile warnings, or aborts.  Members of VSP should use `abort' or talk to kai. -->
		<param name="vspDefaultsCheckingLevel" value="ignore" />
		<!-- if true then writes output_events in output directory.  default is `false'. Will only work when lastIteration is multiple of events writing interval -->
		<param name="writingOutputEvents" value="true" />
	</module>

</config>

2023-08-21T13:42:41,657  INFO ControlerUtils:85 Complete config dump done.
2023-08-21T13:42:41,657  INFO ControlerUtils:86 Checking consistency of config...
2023-08-21T13:42:41,657  INFO VspConfigConsistencyCheckerImpl:64 NOT running vsp config consistency check because vsp defaults checking level is set to IGNORE
2023-08-21T13:42:41,662  INFO ControlerUtils:88 Checking consistency of config done.
2023-08-21T13:42:41,662  INFO PrepareForSimImpl:122 Network seems to be multimodal. Create car-only network which is handed over to PersonPrepareForSim.
2023-08-21T13:42:41,663  INFO NetworkImpl:165  node # 1
2023-08-21T13:42:41,663  INFO NetworkImpl:165  node # 4
2023-08-21T13:42:41,663  INFO NetworkImpl:165  node # 16
2023-08-21T13:42:41,663  INFO NetworkImpl:165  node # 64
2023-08-21T13:42:41,664  INFO NetworkImpl:165  node # 256
2023-08-21T13:42:41,664  INFO NetworkImpl:161  link # 1
2023-08-21T13:42:41,664  INFO NetworkImpl:161  link # 4
2023-08-21T13:42:41,665  INFO NetworkImpl:161  link # 16
2023-08-21T13:42:41,665  INFO NetworkImpl:161  link # 64
2023-08-21T13:42:41,667  INFO NetworkImpl:161  link # 256
2023-08-21T13:42:41,668  WARN XY2LinksForFacilities:51 There is no link for at least a facility. Assigning links for such facilities from coords.
2023-08-21T13:42:41,668  WARN XY2LinksForFacilities:52  This message given only once.
2023-08-21T13:42:41,669  INFO NetworkImpl:419 building QuadTree for nodes: xrange(679321.0322181903,686286.9268926464); yrange(4820338.810996656,4831237.176461053)
2023-08-21T13:42:41,671  INFO NetworkImpl:428 Building QuadTree took 0.003 seconds.
2023-08-21T13:42:41,731  WARN PrepareForSimImpl:229 'usePersonIdForMissingVehicleId' is deprecated. It will be removed soon.
2023-08-21T13:42:41,731  INFO Counter:70 [VehiclesImpl] added vehicle # 1
2023-08-21T13:42:41,732  INFO Counter:70 [VehiclesImpl] added vehicle # 2
2023-08-21T13:42:41,732  INFO Counter:70 [VehiclesImpl] added vehicle # 4
2023-08-21T13:42:41,732  INFO Counter:70 [VehiclesImpl] added vehicle # 8
2023-08-21T13:42:41,732  INFO Counter:70 [VehiclesImpl] added vehicle # 16
2023-08-21T13:42:41,732  INFO Counter:70 [VehiclesImpl] added vehicle # 32
2023-08-21T13:42:41,732  INFO Counter:70 [VehiclesImpl] added vehicle # 64
2023-08-21T13:42:41,733  INFO Counter:70 [VehiclesImpl] added vehicle # 128
2023-08-21T13:42:41,733  INFO Counter:70 [VehiclesImpl] added vehicle # 256
2023-08-21T13:42:41,734  INFO Counter:70 [VehiclesImpl] added vehicle # 512
2023-08-21T13:42:41,736  INFO Counter:70 [VehiclesImpl] added vehicle # 1024
2023-08-21T13:42:41,738  INFO Counter:70 [VehiclesImpl] added vehicle # 2048
2023-08-21T13:42:41,742  INFO Counter:70 [VehiclesImpl] added vehicle # 4096
2023-08-21T13:42:41,747  INFO Counter:70 [VehiclesImpl] added vehicle # 8192
2023-08-21T13:42:41,758  INFO Counter:70 [VehiclesImpl] added vehicle # 16384
2023-08-21T13:42:41,796  INFO Counter:70 [VehiclesImpl] added vehicle # 32768
2023-08-21T13:42:41,833  INFO Counter:70 [VehiclesImpl] added vehicle # 65536
2023-08-21T13:42:41,956  INFO EventsManagerImpl:138 adding Event-Handler: ch.sbb.matsim.routing.pt.raptor.SwissRailRaptorFactory$$Lambda$275/0x0000000800fa6b20
2023-08-21T13:42:41,956  INFO EventsManagerImpl:144   org.matsim.pt.router.TransitScheduleChangedEventHandler
2023-08-21T13:42:41,956  INFO EventsManagerImpl:205     > org.matsim.pt.router.TransitScheduleChangedEvent
2023-08-21T13:42:41,956  INFO EventsManagerImpl:154 
2023-08-21T13:42:41,956  INFO EventsManagerImpl:138 adding Event-Handler: ch.sbb.matsim.routing.pt.raptor.SwissRailRaptorFactory$$Lambda$275/0x0000000800fa6b20
2023-08-21T13:42:41,956  INFO EventsManagerImpl:144   org.matsim.pt.router.TransitScheduleChangedEventHandler
2023-08-21T13:42:41,956  INFO EventsManagerImpl:205     > org.matsim.pt.router.TransitScheduleChangedEvent
2023-08-21T13:42:41,956  INFO EventsManagerImpl:154 
2023-08-21T13:42:41,956  INFO SwissRailRaptorData:85 Preparing data for SwissRailRaptor...
2023-08-21T13:42:41,971  INFO SwissRailRaptorData:212 SwissRailRaptor data preparation done. Took 0 seconds.
2023-08-21T13:42:41,971  INFO SwissRailRaptorData:213 SwissRailRaptor statistics:  #routes = 10
2023-08-21T13:42:41,971  INFO SwissRailRaptorData:214 SwissRailRaptor statistics:  #departures = 2040
2023-08-21T13:42:41,971  INFO SwissRailRaptorData:215 SwissRailRaptor statistics:  #routeStops = 141
2023-08-21T13:42:41,971  INFO SwissRailRaptorData:216 SwissRailRaptor statistics:  #stopFacilities = 133
2023-08-21T13:42:41,971  INFO SwissRailRaptorData:217 SwissRailRaptor statistics:  #transfers (between routeStops) = 37
2023-08-21T13:42:41,974  INFO NetworkImpl:165  node # 1
2023-08-21T13:42:41,974  INFO NetworkImpl:165  node # 4
2023-08-21T13:42:41,974  INFO NetworkImpl:165  node # 16
2023-08-21T13:42:41,974  INFO NetworkImpl:165  node # 64
2023-08-21T13:42:41,975  INFO NetworkImpl:165  node # 256
2023-08-21T13:42:41,975  INFO NetworkImpl:161  link # 1
2023-08-21T13:42:41,975  INFO NetworkImpl:161  link # 4
2023-08-21T13:42:41,975  INFO NetworkImpl:161  link # 16
2023-08-21T13:42:41,976  INFO NetworkImpl:161  link # 64
2023-08-21T13:42:41,976  INFO NetworkImpl:161  link # 256
2023-08-21T13:42:41,978  INFO RandomizingTimeDistanceTravelDisutilityFactory:86  sigma: 3.0; resulting normalization: 0.011108996538242306
2023-08-21T13:42:41,981  INFO RandomizingTimeDistanceTravelDisutilityFactory:86  sigma: 3.0; resulting normalization: 0.011108996538242306
2023-08-21T13:42:41,982  INFO RandomizingTimeDistanceTravelDisutilityFactory:86  sigma: 3.0; resulting normalization: 0.011108996538242306
2023-08-21T13:42:41,982  INFO RandomizingTimeDistanceTravelDisutilityFactory:86  sigma: 3.0; resulting normalization: 0.011108996538242306
2023-08-21T13:42:41,983  INFO RandomizingTimeDistanceTravelDisutilityFactory:86  sigma: 3.0; resulting normalization: 0.011108996538242306
2023-08-21T13:42:41,983  INFO RandomizingTimeDistanceTravelDisutilityFactory:86  sigma: 3.0; resulting normalization: 0.011108996538242306
2023-08-21T13:42:41,983  INFO RandomizingTimeDistanceTravelDisutilityFactory:86  sigma: 3.0; resulting normalization: 0.011108996538242306
2023-08-21T13:42:41,983  INFO RandomizingTimeDistanceTravelDisutilityFactory:86  sigma: 3.0; resulting normalization: 0.011108996538242306
2023-08-21T13:42:41,984  INFO RandomizingTimeDistanceTravelDisutilityFactory:86  sigma: 3.0; resulting normalization: 0.011108996538242306
2023-08-21T13:42:41,984  INFO RandomizingTimeDistanceTravelDisutilityFactory:86  sigma: 3.0; resulting normalization: 0.011108996538242306
2023-08-21T13:42:42,018  INFO Counter:70 [PersonPrepareForSim] handled person # 2
2023-08-21T13:42:42,018  INFO Counter:70 [PersonPrepareForSim] handled person # 4
2023-08-21T13:42:42,020  INFO Counter:70 [PersonPrepareForSim] handled person # 8
2023-08-21T13:42:42,015  INFO Counter:70 [PersonPrepareForSim] handled person # 1
2023-08-21T13:42:42,023  INFO Counter:70 [PersonPrepareForSim] handled person # 16
2023-08-21T13:42:42,030  INFO Counter:70 [PersonPrepareForSim] handled person # 32
2023-08-21T13:42:42,039  INFO Counter:70 [PersonPrepareForSim] handled person # 64
2023-08-21T13:42:42,048  INFO Counter:70 [PersonPrepareForSim] handled person # 128
2023-08-21T13:42:42,064  INFO Counter:70 [PersonPrepareForSim] handled person # 256
2023-08-21T13:42:42,092  INFO Counter:70 [PersonPrepareForSim] handled person # 512
2023-08-21T13:42:42,142  INFO Counter:70 [PersonPrepareForSim] handled person # 1024
2023-08-21T13:42:42,194  INFO Counter:70 [PersonPrepareForSim] handled person # 2048
2023-08-21T13:42:42,334  INFO Counter:70 [PersonPrepareForSim] handled person # 4096
2023-08-21T13:42:42,533  INFO Counter:70 [PersonPrepareForSim] handled person # 8192
2023-08-21T13:42:42,823  INFO Counter:70 [PersonPrepareForSim] handled person # 16384
2023-08-21T13:42:43,300  INFO Counter:70 [PersonPrepareForSim] handled person # 32768
2023-08-21T13:42:44,243  INFO Counter:70 [PersonPrepareForSim] handled person # 65536
2023-08-21T13:42:44,705  INFO Counter:75 [PersonPrepareForSim] handled person # 84110
2023-08-21T13:42:44,723  INFO AbstractController:134 ###################################################
2023-08-21T13:42:44,723  INFO AbstractController:135 ### ITERATION 0 BEGINS
2023-08-21T13:42:44,723  INFO ControlerListenerManagerImpl:146 calling notifyIterationStarts on org.matsim.analysis.LegHistogramListener
2023-08-21T13:42:44,723  INFO ControlerListenerManagerImpl:146 calling notifyIterationStarts on org.matsim.analysis.LinkStatsControlerListener
2023-08-21T13:42:44,723  INFO ControlerListenerManagerImpl:146 calling notifyIterationStarts on org.matsim.core.replanning.ReplanningContextImpl
2023-08-21T13:42:44,723  INFO ControlerListenerManagerImpl:146 calling notifyIterationStarts on org.matsim.core.scoring.ScoringFunctionsForPopulation$$Lambda$241/0x0000000800f791e8
2023-08-21T13:42:44,784  INFO ControlerListenerManagerImpl:146 calling notifyIterationStarts on org.matsim.core.scoring.ExperiencedPlansServiceImpl$1
2023-08-21T13:42:44,801  INFO ControlerListenerManagerImpl:149 [it.0] all ControlerIterationStartsListeners called.
2023-08-21T13:42:44,801  INFO ControlerListenerManagerImpl:225 calling notifyBeforeMobsim on org.matsim.core.controler.corelisteners.EventsHandlingImpl
2023-08-21T13:42:44,801  INFO EventsManagerImpl:168 resetting Event-Handlers
2023-08-21T13:42:44,801  INFO EventsManagerImpl:175   org.matsim.core.trafficmonitoring.TravelTimeCalculator
2023-08-21T13:42:44,802  INFO EventsManagerImpl:175   org.matsim.analysis.VolumesAnalyzer
2023-08-21T13:42:44,802  INFO EventsManagerImpl:175   org.matsim.core.scoring.ScoringFunctionsForPopulation
2023-08-21T13:42:44,802  INFO EventsManagerImpl:175   org.matsim.analysis.LegHistogram
2023-08-21T13:42:44,802  INFO EventsManagerImpl:175   org.matsim.analysis.CalcLegTimes
2023-08-21T13:42:44,802  INFO EventsManagerImpl:175   ch.sbb.matsim.routing.pt.raptor.SwissRailRaptorFactory$$Lambda$275/0x0000000800fa6b20
2023-08-21T13:42:44,804  INFO EventsManagerImpl:138 adding Event-Handler: org.matsim.core.events.algorithms.EventWriterXML
2023-08-21T13:42:44,804  INFO EventsManagerImpl:144   org.matsim.core.events.algorithms.EventWriter
2023-08-21T13:42:44,804  INFO EventsManagerImpl:144   org.matsim.core.events.handler.BasicEventHandler
2023-08-21T13:42:44,804  INFO EventsManagerImpl:205     > org.matsim.api.core.v01.events.Event
2023-08-21T13:42:44,804  INFO EventsManagerImpl:154 
2023-08-21T13:42:44,804  INFO EventsManagerImpl:138 adding Event-Handler: org.matsim.core.events.algorithms.EventWriterXML
2023-08-21T13:42:44,804  INFO EventsManagerImpl:144   org.matsim.core.events.algorithms.EventWriter
2023-08-21T13:42:44,804  INFO EventsManagerImpl:144   org.matsim.core.events.handler.BasicEventHandler
2023-08-21T13:42:44,804  INFO EventsManagerImpl:205     > org.matsim.api.core.v01.events.Event
2023-08-21T13:42:44,804  INFO EventsManagerImpl:154 
2023-08-21T13:42:44,804  INFO ControlerListenerManagerImpl:225 calling notifyBeforeMobsim on org.matsim.core.controler.corelisteners.PlansDumpingImpl
2023-08-21T13:42:44,804  INFO PlansDumpingImpl:77 dumping plans...
2023-08-21T13:42:44,852  INFO Counter:70 [PopulationWriter] dumped person # 1
2023-08-21T13:42:44,853  INFO Counter:70 [PopulationWriter] dumped person # 2
2023-08-21T13:42:44,853  INFO Counter:70 [PopulationWriter] dumped person # 4
2023-08-21T13:42:44,853  INFO Counter:70 [PopulationWriter] dumped person # 8
2023-08-21T13:42:44,870  INFO Counter:70 [PopulationWriter] dumped person # 16
2023-08-21T13:42:44,873  INFO Counter:70 [PopulationWriter] dumped person # 32
2023-08-21T13:42:44,877  INFO Counter:70 [PopulationWriter] dumped person # 64
2023-08-21T13:42:44,882  INFO Counter:70 [PopulationWriter] dumped person # 128
2023-08-21T13:42:44,892  INFO Counter:70 [PopulationWriter] dumped person # 256
2023-08-21T13:42:44,908  INFO Counter:70 [PopulationWriter] dumped person # 512
2023-08-21T13:42:44,935  INFO Counter:70 [PopulationWriter] dumped person # 1024
2023-08-21T13:42:44,984  INFO Counter:70 [PopulationWriter] dumped person # 2048
2023-08-21T13:42:45,073  INFO Counter:70 [PopulationWriter] dumped person # 4096
2023-08-21T13:42:45,233  INFO Counter:70 [PopulationWriter] dumped person # 8192
2023-08-21T13:42:45,547  INFO Counter:70 [PopulationWriter] dumped person # 16384
2023-08-21T13:42:46,291  INFO Counter:70 [PopulationWriter] dumped person # 32768
2023-08-21T13:42:47,524  INFO Counter:70 [PopulationWriter] dumped person # 65536
2023-08-21T13:42:48,194  INFO PopulationWriter:145 Population written to: output_2/ITERS/it.0/run0.0.plans.xml.gz
2023-08-21T13:42:48,196  INFO Counter:75 [PopulationWriter] dumped person # 84110
2023-08-21T13:42:48,196  INFO PlansDumpingImpl:94 finished plans dump.
2023-08-21T13:42:48,196  INFO ControlerListenerManagerImpl:230 calling notifyBeforeMobsim on org.matsim.core.population.VspPlansCleaner
2023-08-21T13:42:48,225  INFO ControlerListenerManagerImpl:233 [it.0] all ControlerBeforeMobsimListeners called.
2023-08-21T13:42:48,226  INFO PrepareForMobsimImpl:87 Network seems to be multimodal. Create car-only network which is handed over to PersonPrepareForSim.
2023-08-21T13:42:48,226  INFO NetworkImpl:165  node # 1
2023-08-21T13:42:48,226  INFO NetworkImpl:165  node # 4
2023-08-21T13:42:48,226  INFO NetworkImpl:165  node # 16
2023-08-21T13:42:48,226  INFO NetworkImpl:165  node # 64
2023-08-21T13:42:48,226  INFO NetworkImpl:165  node # 256
2023-08-21T13:42:48,226  INFO NetworkImpl:161  link # 1
2023-08-21T13:42:48,226  INFO NetworkImpl:161  link # 4
2023-08-21T13:42:48,226  INFO NetworkImpl:161  link # 16
2023-08-21T13:42:48,226  INFO NetworkImpl:161  link # 64
2023-08-21T13:42:48,227  INFO NetworkImpl:161  link # 256
2023-08-21T13:42:48,246  INFO Counter:70 [PersonPrepareForSim] handled person # 4
2023-08-21T13:42:48,246  INFO Counter:70 [PersonPrepareForSim] handled person # 1
2023-08-21T13:42:48,246  INFO Counter:70 [PersonPrepareForSim] handled person # 2
2023-08-21T13:42:48,247  INFO Counter:70 [PersonPrepareForSim] handled person # 64
2023-08-21T13:42:48,247  INFO Counter:70 [PersonPrepareForSim] handled person # 128
2023-08-21T13:42:48,247  INFO Counter:70 [PersonPrepareForSim] handled person # 32
2023-08-21T13:42:48,246  INFO Counter:70 [PersonPrepareForSim] handled person # 16
2023-08-21T13:42:48,248  INFO Counter:70 [PersonPrepareForSim] handled person # 256
2023-08-21T13:42:48,246  INFO Counter:70 [PersonPrepareForSim] handled person # 8
2023-08-21T13:42:48,249  INFO Counter:70 [PersonPrepareForSim] handled person # 512
2023-08-21T13:42:48,250  INFO Counter:70 [PersonPrepareForSim] handled person # 1024
2023-08-21T13:42:48,251  INFO Counter:70 [PersonPrepareForSim] handled person # 2048
2023-08-21T13:42:48,255  INFO Counter:70 [PersonPrepareForSim] handled person # 4096
2023-08-21T13:42:48,262  INFO Counter:70 [PersonPrepareForSim] handled person # 8192
2023-08-21T13:42:48,278  INFO Counter:70 [PersonPrepareForSim] handled person # 16384
2023-08-21T13:42:48,309  INFO Counter:70 [PersonPrepareForSim] handled person # 32768
2023-08-21T13:42:48,367  INFO Counter:70 [PersonPrepareForSim] handled person # 65536
2023-08-21T13:42:48,389  INFO Counter:75 [PersonPrepareForSim] handled person # 84110
2023-08-21T13:42:48,414  INFO MobsimListenerManager:50 calling addQueueSimulationListener
2023-08-21T13:42:48,414  INFO MobsimListenerManager:54   assigned class org.matsim.core.mobsim.framework.listeners.MobsimListener to interface org.matsim.vis.snapshotwriters.SnapshotWriterManager
2023-08-21T13:42:48,414  INFO MobsimListenerManager:54   assigned class org.matsim.core.mobsim.framework.listeners.MobsimListener to interface org.matsim.core.mobsim.framework.listeners.MobsimInitializedListener
2023-08-21T13:42:48,414  INFO MobsimListenerManager:54   assigned class org.matsim.core.mobsim.framework.listeners.MobsimListener to interface org.matsim.core.mobsim.framework.listeners.MobsimBeforeCleanupListener
2023-08-21T13:42:48,414  INFO MobsimListenerManager:54   assigned class org.matsim.core.mobsim.framework.listeners.MobsimListener to interface org.matsim.core.mobsim.framework.listeners.MobsimAfterSimStepListener
2023-08-21T13:42:48,414  INFO MobsimListenerManager:54   assigned class org.matsim.core.mobsim.framework.listeners.MobsimListener to interface org.matsim.core.mobsim.framework.listeners.MobsimListener
2023-08-21T13:42:48,424  INFO QSimProvider:131 Added MobsimEngine class org.matsim.core.mobsim.qsim.ActivityEngineDefaultImpl
2023-08-21T13:42:48,424  INFO QSimProvider:137 Added Activityhandler class org.matsim.core.mobsim.qsim.ActivityEngineDefaultImpl
2023-08-21T13:42:48,424  INFO QSimProvider:143 Added DepartureHandler class org.matsim.core.mobsim.qsim.qnetsimengine.VehicularDepartureHandler
2023-08-21T13:42:48,424  INFO QSimProvider:131 Added MobsimEngine class org.matsim.core.mobsim.qsim.qnetsimengine.QNetsimEngineWithThreadpool
2023-08-21T13:42:48,424  INFO QSimProvider:131 Added MobsimEngine class org.matsim.core.mobsim.qsim.DefaultTeleportationEngine
2023-08-21T13:42:48,424  INFO QSimProvider:143 Added DepartureHandler class org.matsim.core.mobsim.qsim.DefaultTeleportationEngine
2023-08-21T13:42:48,425  INFO QSimProvider:149 Added AgentSource class org.matsim.core.mobsim.qsim.agents.PopulationAgentSource
2023-08-21T13:42:48,425  INFO MobsimListenerManager:50 calling addQueueSimulationListener
2023-08-21T13:42:48,425  INFO MobsimListenerManager:54   assigned class org.matsim.core.mobsim.framework.listeners.MobsimListener to interface org.matsim.core.mobsim.framework.listeners.MobsimBeforeSimStepListener
2023-08-21T13:42:48,425  INFO MobsimListenerManager:54   assigned class org.matsim.core.mobsim.framework.listeners.MobsimListener to interface org.matsim.core.mobsim.qsim.messagequeueengine.MessageQueueEngine
2023-08-21T13:42:48,425  INFO MobsimListenerManager:54   assigned class org.matsim.core.mobsim.framework.listeners.MobsimListener to interface org.matsim.core.mobsim.framework.listeners.MobsimListener
2023-08-21T13:42:48,425  INFO QSimProvider:155 Added MobsimListener class org.matsim.core.mobsim.qsim.messagequeueengine.MessageQueueEngine
2023-08-21T13:42:48,425  INFO QSimProvider:131 Added MobsimEngine class org.matsim.core.mobsim.qsim.pt.TransitQSimEngine
2023-08-21T13:42:48,425  INFO QSimProvider:143 Added DepartureHandler class org.matsim.core.mobsim.qsim.pt.TransitQSimEngine
2023-08-21T13:42:48,425  INFO QSimProvider:149 Added AgentSource class org.matsim.core.mobsim.qsim.pt.TransitQSimEngine
2023-08-21T13:42:48,429  INFO PopulationUtils:1202 adding scenario element for allpersons container
2023-08-21T13:42:48,429  INFO PopulationImpl:107  person # 1
2023-08-21T13:42:48,429  INFO PopulationImpl:107  person # 4
2023-08-21T13:42:48,429  INFO PopulationImpl:107  person # 16
2023-08-21T13:42:48,429  INFO PopulationImpl:107  person # 64
2023-08-21T13:42:48,430  INFO PopulationImpl:107  person # 256
2023-08-21T13:42:48,432  INFO PopulationImpl:107  person # 1024
2023-08-21T13:42:48,460  INFO PopulationImpl:107  person # 4096
2023-08-21T13:42:48,469  INFO PopulationImpl:107  person # 16384
2023-08-21T13:42:48,500  INFO PopulationImpl:107  person # 65536
2023-08-21T13:42:48,509  INFO VehicleUtils:328 adding scenario element for allvehicles container
2023-08-21T13:42:48,509  INFO Counter:70 [VehiclesImpl] added vehicle # 1
2023-08-21T13:42:48,510  INFO Counter:70 [VehiclesImpl] added vehicle # 2
2023-08-21T13:42:48,510  INFO Counter:70 [VehiclesImpl] added vehicle # 4
2023-08-21T13:42:48,510  INFO Counter:70 [VehiclesImpl] added vehicle # 8
2023-08-21T13:42:48,510  INFO Counter:70 [VehiclesImpl] added vehicle # 16
2023-08-21T13:42:48,510  INFO Counter:70 [VehiclesImpl] added vehicle # 32
2023-08-21T13:42:48,510  INFO Counter:70 [VehiclesImpl] added vehicle # 64
2023-08-21T13:42:48,510  INFO Counter:70 [VehiclesImpl] added vehicle # 128
2023-08-21T13:42:48,511  INFO Counter:70 [VehiclesImpl] added vehicle # 256
2023-08-21T13:42:48,512  INFO Counter:70 [VehiclesImpl] added vehicle # 512
2023-08-21T13:42:48,514  INFO Counter:70 [VehiclesImpl] added vehicle # 1024
2023-08-21T13:42:48,516  INFO Counter:70 [VehiclesImpl] added vehicle # 2048
2023-08-21T13:42:48,519  INFO Counter:70 [VehiclesImpl] added vehicle # 4096
2023-08-21T13:42:48,523  INFO Counter:70 [VehiclesImpl] added vehicle # 8192
2023-08-21T13:42:48,531  INFO Counter:70 [VehiclesImpl] added vehicle # 16384
2023-08-21T13:42:48,546  INFO Counter:70 [VehiclesImpl] added vehicle # 32768
2023-08-21T13:42:48,586  INFO Counter:70 [VehiclesImpl] added vehicle # 65536
2023-08-21T13:42:48,589  INFO ReconstructingUmlaufBuilder:133 Generating UmlaufStuecke ...
2023-08-21T13:42:48,589  INFO ReconstructingUmlaufBuilder:146 ... done generating UmlaufStuecke
2023-08-21T13:42:48,614  INFO AbstractQNetsimEngine:428 Assigned 8 nodes and 9 links to QSimEngineRunner #0
2023-08-21T13:42:48,614  INFO AbstractQNetsimEngine:428 Assigned 8 nodes and 17 links to QSimEngineRunner #1
2023-08-21T13:42:48,614  INFO AbstractQNetsimEngine:428 Assigned 7 nodes and 9 links to QSimEngineRunner #2
2023-08-21T13:42:48,614  INFO AbstractQNetsimEngine:428 Assigned 7 nodes and 7 links to QSimEngineRunner #3
2023-08-21T13:42:48,614  INFO AbstractQNetsimEngine:428 Assigned 7 nodes and 7 links to QSimEngineRunner #4
2023-08-21T13:42:48,614  INFO AbstractQNetsimEngine:428 Assigned 7 nodes and 7 links to QSimEngineRunner #5
2023-08-21T13:42:48,615  INFO AbstractQNetsimEngine:428 Assigned 7 nodes and 7 links to QSimEngineRunner #6
2023-08-21T13:42:48,615  INFO AbstractQNetsimEngine:428 Assigned 7 nodes and 8 links to QSimEngineRunner #7
2023-08-21T13:42:48,615  INFO AbstractQNetsimEngine:428 Assigned 7 nodes and 9 links to QSimEngineRunner #8
2023-08-21T13:42:48,615  INFO AbstractQNetsimEngine:428 Assigned 7 nodes and 7 links to QSimEngineRunner #9
2023-08-21T13:42:48,615  INFO AbstractQNetsimEngine:428 Assigned 7 nodes and 7 links to QSimEngineRunner #10
2023-08-21T13:42:48,615  INFO AbstractQNetsimEngine:428 Assigned 7 nodes and 9 links to QSimEngineRunner #11
2023-08-21T13:42:48,615  INFO AbstractQNetsimEngine:428 Assigned 7 nodes and 7 links to QSimEngineRunner #12
2023-08-21T13:42:48,615  INFO AbstractQNetsimEngine:428 Assigned 7 nodes and 7 links to QSimEngineRunner #13
2023-08-21T13:42:48,615  INFO AbstractQNetsimEngine:428 Assigned 7 nodes and 8 links to QSimEngineRunner #14
2023-08-21T13:42:48,615  INFO AbstractQNetsimEngine:428 Assigned 7 nodes and 13 links to QSimEngineRunner #15
2023-08-21T13:42:48,615  INFO AbstractQNetsimEngine:428 Assigned 7 nodes and 10 links to QSimEngineRunner #16
2023-08-21T13:42:48,615  INFO AbstractQNetsimEngine:428 Assigned 7 nodes and 9 links to QSimEngineRunner #17
2023-08-21T13:42:48,615  INFO AbstractQNetsimEngine:428 Assigned 7 nodes and 9 links to QSimEngineRunner #18
2023-08-21T13:42:48,615  INFO AbstractQNetsimEngine:428 Assigned 7 nodes and 9 links to QSimEngineRunner #19
2023-08-21T13:42:48,615  INFO AbstractQNetsimEngine:428 Assigned 7 nodes and 7 links to QSimEngineRunner #20
2023-08-21T13:42:48,615  INFO AbstractQNetsimEngine:428 Assigned 7 nodes and 10 links to QSimEngineRunner #21
2023-08-21T13:42:48,615  INFO AbstractQNetsimEngine:428 Assigned 7 nodes and 7 links to QSimEngineRunner #22
2023-08-21T13:42:48,615  INFO AbstractQNetsimEngine:428 Assigned 7 nodes and 7 links to QSimEngineRunner #23
2023-08-21T13:42:48,615  INFO AbstractQNetsimEngine:428 Assigned 7 nodes and 7 links to QSimEngineRunner #24
2023-08-21T13:42:48,615  INFO AbstractQNetsimEngine:428 Assigned 7 nodes and 7 links to QSimEngineRunner #25
2023-08-21T13:42:48,615  INFO AbstractQNetsimEngine:428 Assigned 7 nodes and 10 links to QSimEngineRunner #26
2023-08-21T13:42:48,615  INFO AbstractQNetsimEngine:428 Assigned 7 nodes and 7 links to QSimEngineRunner #27
2023-08-21T13:42:48,615  INFO AbstractQNetsimEngine:428 Assigned 7 nodes and 9 links to QSimEngineRunner #28
2023-08-21T13:42:48,615  INFO AbstractQNetsimEngine:428 Assigned 7 nodes and 7 links to QSimEngineRunner #29
2023-08-21T13:42:48,615  INFO AbstractQNetsimEngine:428 Assigned 7 nodes and 9 links to QSimEngineRunner #30
2023-08-21T13:42:48,615  INFO AbstractQNetsimEngine:428 Assigned 7 nodes and 9 links to QSimEngineRunner #31
2023-08-21T13:42:48,615  INFO AbstractQNetsimEngine:428 Assigned 7 nodes and 9 links to QSimEngineRunner #32
2023-08-21T13:42:48,615  INFO AbstractQNetsimEngine:428 Assigned 7 nodes and 7 links to QSimEngineRunner #33
2023-08-21T13:42:48,615  INFO AbstractQNetsimEngine:428 Assigned 7 nodes and 9 links to QSimEngineRunner #34
2023-08-21T13:42:48,615  INFO AbstractQNetsimEngine:428 Assigned 7 nodes and 7 links to QSimEngineRunner #35
2023-08-21T13:42:48,615  INFO AbstractQNetsimEngine:428 Assigned 7 nodes and 7 links to QSimEngineRunner #36
2023-08-21T13:42:48,615  INFO AbstractQNetsimEngine:428 Assigned 7 nodes and 7 links to QSimEngineRunner #37
2023-08-21T13:42:48,615  INFO AbstractQNetsimEngine:428 Assigned 7 nodes and 10 links to QSimEngineRunner #38
2023-08-21T13:42:48,615  INFO AbstractQNetsimEngine:428 Assigned 7 nodes and 7 links to QSimEngineRunner #39
2023-08-21T13:42:48,671  INFO EventsManagerImpl:115  event # 1
2023-08-21T13:42:48,673  INFO EventsManagerImpl:115  event # 4
2023-08-21T13:42:48,673  INFO EventsManagerImpl:115  event # 16
2023-08-21T13:42:48,679  INFO AbstractQNetsimEngine:366 SIMULATION (QNetsimEngine) AT 06:00:00 : #links=0 #nodes=10
2023-08-21T13:42:48,682  INFO QSim:566 SIMULATION (NEW QSim) AT 06:00:00 : #Veh=86150 lost=0 simT=0.0s realT=0s; (s/r): 0.0
2023-08-21T13:42:48,683  INFO EventsManagerImpl:115  event # 64
2023-08-21T13:42:48,723  INFO EventsManagerImpl:115  event # 256
2023-08-21T13:42:48,798  INFO EventsManagerImpl:115  event # 1024
2023-08-21T13:42:48,948  INFO EventsManagerImpl:115  event # 4096
2023-08-21T13:42:49,166  INFO EventsManagerImpl:115  event # 16384
2023-08-21T13:42:49,268  INFO AbstractQNetsimEngine:366 SIMULATION (QNetsimEngine) AT 07:00:00 : #links=225 #nodes=48
2023-08-21T13:42:49,268  INFO QSim:566 SIMULATION (NEW QSim) AT 07:00:00 : #Veh=86043 lost=0 simT=3600.0s realT=0s; (s/r): Infinity
2023-08-21T13:42:49,427  INFO EventsManagerImpl:115  event # 65536
2023-08-21T13:42:50,073  INFO EventsManagerImpl:115  event # 262144
2023-08-21T13:42:51,827  INFO AbstractQNetsimEngine:366 SIMULATION (QNetsimEngine) AT 08:00:00 : #links=201 #nodes=131
2023-08-21T13:42:51,827  INFO QSim:566 SIMULATION (NEW QSim) AT 08:00:00 : #Veh=85996 lost=0 simT=7200.0s realT=3s; (s/r): 2400.0
2023-08-21T13:42:52,615  INFO AbstractQNetsimEngine:366 SIMULATION (QNetsimEngine) AT 09:00:00 : #links=160 #nodes=125
2023-08-21T13:42:52,615  INFO QSim:566 SIMULATION (NEW QSim) AT 09:00:00 : #Veh=85990 lost=0 simT=10800.0s realT=4s; (s/r): 2700.0
2023-08-21T13:42:53,216  INFO AbstractQNetsimEngine:366 SIMULATION (QNetsimEngine) AT 10:00:00 : #links=163 #nodes=123
2023-08-21T13:42:53,216  INFO QSim:566 SIMULATION (NEW QSim) AT 10:00:00 : #Veh=85945 lost=0 simT=14400.0s realT=4s; (s/r): 3600.0
2023-08-21T13:42:53,817  INFO AbstractQNetsimEngine:366 SIMULATION (QNetsimEngine) AT 11:00:00 : #links=170 #nodes=129
2023-08-21T13:42:53,818  INFO QSim:566 SIMULATION (NEW QSim) AT 11:00:00 : #Veh=85850 lost=0 simT=18000.0s realT=5s; (s/r): 3600.0
2023-08-21T13:42:54,496  INFO AbstractQNetsimEngine:366 SIMULATION (QNetsimEngine) AT 12:00:00 : #links=169 #nodes=128
2023-08-21T13:42:54,496  INFO QSim:566 SIMULATION (NEW QSim) AT 12:00:00 : #Veh=85768 lost=0 simT=21600.0s realT=6s; (s/r): 3600.0
2023-08-21T13:42:55,150  INFO AbstractQNetsimEngine:366 SIMULATION (QNetsimEngine) AT 13:00:00 : #links=170 #nodes=128
2023-08-21T13:42:55,150  INFO QSim:566 SIMULATION (NEW QSim) AT 13:00:00 : #Veh=85691 lost=0 simT=25200.0s realT=6s; (s/r): 4200.0
2023-08-21T13:42:55,744  INFO AbstractQNetsimEngine:366 SIMULATION (QNetsimEngine) AT 14:00:00 : #links=168 #nodes=129
2023-08-21T13:42:55,744  INFO QSim:566 SIMULATION (NEW QSim) AT 14:00:00 : #Veh=85606 lost=0 simT=28800.0s realT=7s; (s/r): 4114.285714285715
2023-08-21T13:42:56,357  INFO AbstractQNetsimEngine:366 SIMULATION (QNetsimEngine) AT 15:00:00 : #links=172 #nodes=130
2023-08-21T13:42:56,357  INFO QSim:566 SIMULATION (NEW QSim) AT 15:00:00 : #Veh=85512 lost=0 simT=32400.0s realT=7s; (s/r): 4628.571428571428
2023-08-21T13:42:56,959  INFO AbstractQNetsimEngine:366 SIMULATION (QNetsimEngine) AT 16:00:00 : #links=178 #nodes=134
2023-08-21T13:42:56,959  INFO QSim:566 SIMULATION (NEW QSim) AT 16:00:00 : #Veh=85433 lost=0 simT=36000.0s realT=8s; (s/r): 4500.0
2023-08-21T13:42:57,552  INFO AbstractQNetsimEngine:366 SIMULATION (QNetsimEngine) AT 17:00:00 : #links=181 #nodes=135
2023-08-21T13:42:57,552  INFO QSim:566 SIMULATION (NEW QSim) AT 17:00:00 : #Veh=85351 lost=0 simT=39600.0s realT=9s; (s/r): 4400.0
2023-08-21T13:42:57,859  INFO EventsManagerImpl:115  event # 1048576
2023-08-21T13:42:58,365  INFO AbstractQNetsimEngine:366 SIMULATION (QNetsimEngine) AT 18:00:00 : #links=195 #nodes=151
2023-08-21T13:42:58,365  INFO QSim:566 SIMULATION (NEW QSim) AT 18:00:00 : #Veh=84542 lost=0 simT=43200.0s realT=9s; (s/r): 4800.0
2023-08-21T13:42:59,034  INFO AbstractQNetsimEngine:366 SIMULATION (QNetsimEngine) AT 19:00:00 : #links=196 #nodes=153
2023-08-21T13:42:59,034  INFO QSim:566 SIMULATION (NEW QSim) AT 19:00:00 : #Veh=83811 lost=0 simT=46800.0s realT=10s; (s/r): 4680.0
2023-08-21T13:42:59,625  INFO AbstractQNetsimEngine:366 SIMULATION (QNetsimEngine) AT 20:00:00 : #links=196 #nodes=154
2023-08-21T13:42:59,625  INFO QSim:566 SIMULATION (NEW QSim) AT 20:00:00 : #Veh=83689 lost=0 simT=50400.0s realT=11s; (s/r): 4581.818181818182
2023-08-21T13:43:00,181  INFO AbstractQNetsimEngine:366 SIMULATION (QNetsimEngine) AT 21:00:00 : #links=196 #nodes=158
2023-08-21T13:43:00,181  INFO QSim:566 SIMULATION (NEW QSim) AT 21:00:00 : #Veh=83567 lost=0 simT=54000.0s realT=11s; (s/r): 4909.090909090909
2023-08-21T13:43:00,753  INFO AbstractQNetsimEngine:366 SIMULATION (QNetsimEngine) AT 22:00:00 : #links=194 #nodes=158
2023-08-21T13:43:00,753  INFO QSim:566 SIMULATION (NEW QSim) AT 22:00:00 : #Veh=83509 lost=0 simT=57600.0s realT=12s; (s/r): 4800.0
2023-08-21T13:43:01,297  INFO AbstractQNetsimEngine:366 SIMULATION (QNetsimEngine) AT 23:00:00 : #links=195 #nodes=153
2023-08-21T13:43:01,297  INFO QSim:566 SIMULATION (NEW QSim) AT 23:00:00 : #Veh=83490 lost=0 simT=61200.0s realT=12s; (s/r): 5100.0
2023-08-21T13:43:01,839  INFO AbstractQNetsimEngine:366 SIMULATION (QNetsimEngine) AT 24:00:00 : #links=197 #nodes=155
2023-08-21T13:43:01,839  INFO QSim:566 SIMULATION (NEW QSim) AT 24:00:00 : #Veh=83488 lost=0 simT=64800.0s realT=13s; (s/r): 4984.615384615385
2023-08-21T13:43:02,414  INFO AbstractQNetsimEngine:366 SIMULATION (QNetsimEngine) AT 25:00:00 : #links=195 #nodes=154
2023-08-21T13:43:02,414  INFO QSim:566 SIMULATION (NEW QSim) AT 25:00:00 : #Veh=83487 lost=0 simT=68400.0s realT=14s; (s/r): 4885.714285714285
2023-08-21T13:43:03,016  INFO AbstractQNetsimEngine:366 SIMULATION (QNetsimEngine) AT 26:00:00 : #links=197 #nodes=155
2023-08-21T13:43:03,017  INFO QSim:566 SIMULATION (NEW QSim) AT 26:00:00 : #Veh=83481 lost=0 simT=72000.0s realT=14s; (s/r): 5142.857142857143
2023-08-21T13:43:03,569  INFO AbstractQNetsimEngine:366 SIMULATION (QNetsimEngine) AT 27:00:00 : #links=195 #nodes=154
2023-08-21T13:43:03,569  INFO QSim:566 SIMULATION (NEW QSim) AT 27:00:00 : #Veh=83470 lost=0 simT=75600.0s realT=15s; (s/r): 5040.0
2023-08-21T13:43:04,115  INFO AbstractQNetsimEngine:366 SIMULATION (QNetsimEngine) AT 28:00:00 : #links=195 #nodes=154
2023-08-21T13:43:04,115  INFO QSim:566 SIMULATION (NEW QSim) AT 28:00:00 : #Veh=83457 lost=0 simT=79200.0s realT=15s; (s/r): 5280.0
2023-08-21T13:43:04,695  INFO AbstractQNetsimEngine:366 SIMULATION (QNetsimEngine) AT 29:00:00 : #links=194 #nodes=153
2023-08-21T13:43:04,695  INFO QSim:566 SIMULATION (NEW QSim) AT 29:00:00 : #Veh=83439 lost=0 simT=82800.0s realT=16s; (s/r): 5175.0
2023-08-21T13:43:05,238  INFO AbstractQNetsimEngine:366 SIMULATION (QNetsimEngine) AT 30:00:00 : #links=193 #nodes=152
2023-08-21T13:43:05,238  INFO QSim:566 SIMULATION (NEW QSim) AT 30:00:00 : #Veh=83387 lost=0 simT=86400.0s realT=16s; (s/r): 5400.0
2023-08-21T13:43:05,503  INFO AbstractController$9:235 ### ITERATION 0 fires after mobsim event
2023-08-21T13:43:05,503  INFO ControlerListenerManagerImpl:249 calling notifyAfterMobsim on org.matsim.analysis.LegTimesControlerListener
2023-08-21T13:43:05,504  INFO Gbl:192 Thread performance: Thread=class org.matsim.core.events.SimStepParallelEventsManagerImpl$ProcessEventsRunnable0  cpu-time=5.722329sec
2023-08-21T13:43:05,505  INFO LegTimesControlerListener:51 [0] average trip (probably: leg) duration is: 1921 seconds = 00:32:01
2023-08-21T13:43:05,506  INFO ControlerListenerManagerImpl:249 calling notifyAfterMobsim on org.matsim.core.events.MobsimScopeEventHandling
2023-08-21T13:43:05,506  INFO ControlerListenerManagerImpl:249 calling notifyAfterMobsim on org.matsim.core.scoring.EventsToActivities$1
2023-08-21T13:43:05,511  INFO ControlerListenerManagerImpl:252 [it.0] all ControlerAfterMobsimListeners called.
2023-08-21T13:43:05,512  INFO AbstractController$4:160 ### ITERATION 0 fires scoring event
2023-08-21T13:43:05,512  INFO ControlerListenerManagerImpl:184 calling notifyScoring on org.matsim.core.scoring.PlansScoringImpl
2023-08-21T13:43:05,569  INFO NewScoreAssignerImpl:58 it: 0 msaStart: 150
2023-08-21T13:43:05,605  INFO ControlerListenerManagerImpl:195 [it.0] all ControlerScoringListeners called.
2023-08-21T13:43:05,605  INFO AbstractController$5:168 ### ITERATION 0 fires iteration end event
2023-08-21T13:43:05,605  INFO ControlerListenerManagerImpl:161 calling notifyIterationEnds on org.matsim.core.controler.corelisteners.EventsHandlingImpl
2023-08-21T13:43:05,606  INFO EventsManagerImpl:159 removing Event-Handler: org.matsim.core.events.algorithms.EventWriterXML
2023-08-21T13:43:05,606  INFO EventsManagerImpl:159 removing Event-Handler: org.matsim.core.events.algorithms.EventWriterXML
2023-08-21T13:43:05,606  INFO ControlerListenerManagerImpl:161 calling notifyIterationEnds on org.matsim.core.scoring.PlansScoringImpl
2023-08-21T13:43:05,636  INFO ControlerListenerManagerImpl:168 calling notifyIterationEnds on org.matsim.counts.CountsControlerListener
2023-08-21T13:43:05,636  INFO ControlerListenerManagerImpl:168 calling notifyIterationEnds on org.matsim.analysis.ModeStatsControlerListener
2023-08-21T13:43:05,683  INFO ModeStatsControlerListener:145 Mode shares over all 168220.0 trips found. MainModeIdentifier: class org.matsim.core.router.RoutingModeMainModeIdentifier
2023-08-21T13:43:05,683  INFO ModeStatsControlerListener:152 -- mode share of mode car = 0.7818095351325645
2023-08-21T13:43:05,684  INFO ModeStatsControlerListener:152 -- mode share of mode pt = 0.2181904648674355
2023-08-21T13:43:05,684  INFO ControlerListenerManagerImpl:168 calling notifyIterationEnds on org.matsim.analysis.ScoreStatsControlerListener
2023-08-21T13:43:05,708  INFO ScoreStatsControlerListener:182 -- avg. score of the executed plan of each agent: -41.43504773001675
2023-08-21T13:43:05,708  INFO ScoreStatsControlerListener:183 -- avg. score of the worst plan of each agent: -41.43504773001675
2023-08-21T13:43:05,708  INFO ScoreStatsControlerListener:184 -- avg. of the avg. plan score per agent: -41.43504773001675
2023-08-21T13:43:05,708  INFO ScoreStatsControlerListener:185 -- avg. score of the best plan of each agent: -41.43504773001675
2023-08-21T13:43:05,710  INFO ControlerListenerManagerImpl:168 calling notifyIterationEnds on org.matsim.analysis.IterationTravelStatsControlerListener
2023-08-21T13:43:05,779  INFO TravelDistanceStats:144 -- average leg distance per plan (executed plans only): 2062.5382808464665 meters
[...]
2023-08-21T13:47:05,362  INFO Counter:70 [PlanMutateTimeAllocationSimplified] handled plan # 32
2023-08-21T13:47:05,362  INFO Counter:70 [PlanMutateTimeAllocationSimplified] handled plan # 64
2023-08-21T13:47:05,362  INFO Counter:70 [PlanMutateTimeAllocationSimplified] handled plan # 128
2023-08-21T13:47:05,363  INFO Counter:70 [PlanMutateTimeAllocationSimplified] handled plan # 256
2023-08-21T13:47:05,364  INFO AbstractMultithreadedModule:157 [PlanMutateTimeAllocationSimplified] all 40 threads finished.
2023-08-21T13:47:05,364  INFO GenericPlanStrategyImpl:127 Plan-Strategy finished, 508 plans handled. Strategy: RandomPlanSelector_TimeAllocationMutatorModule
2023-08-21T13:47:05,364  INFO GenericPlanStrategyImpl:127 Plan-Strategy finished, 34130 plans handled. Strategy: ExpBetaPlanChanger
2023-08-21T13:47:05,364  INFO AbstractMultithreadedModule:142 [ChooseRandomLegModeForSubtour] starting 40 threads, handling 4828 plans
2023-08-21T13:47:05,364  INFO Counter:70 [ChooseRandomLegModeForSubtour] handled plan # 1
2023-08-21T13:47:05,364  INFO Counter:70 [ChooseRandomLegModeForSubtour] handled plan # 2
2023-08-21T13:47:05,364  INFO Counter:70 [ChooseRandomLegModeForSubtour] handled plan # 4
2023-08-21T13:47:05,364  INFO Counter:70 [ChooseRandomLegModeForSubtour] handled plan # 16
2023-08-21T13:47:05,364  INFO Counter:70 [ChooseRandomLegModeForSubtour] handled plan # 32
2023-08-21T13:47:05,364  INFO Counter:70 [ChooseRandomLegModeForSubtour] handled plan # 8
2023-08-21T13:47:05,364  INFO Counter:70 [ChooseRandomLegModeForSubtour] handled plan # 128
2023-08-21T13:47:05,364  INFO Counter:70 [ChooseRandomLegModeForSubtour] handled plan # 64
2023-08-21T13:47:05,364  INFO Counter:70 [ChooseRandomLegModeForSubtour] handled plan # 256
2023-08-21T13:47:05,364  INFO Counter:70 [ChooseRandomLegModeForSubtour] handled plan # 512
2023-08-21T13:47:05,365  INFO Counter:70 [ChooseRandomLegModeForSubtour] handled plan # 1024
2023-08-21T13:47:05,366  INFO Counter:70 [ChooseRandomLegModeForSubtour] handled plan # 2048
2023-08-21T13:47:05,368  INFO Counter:70 [ChooseRandomLegModeForSubtour] handled plan # 4096
2023-08-21T13:47:05,369  INFO AbstractMultithreadedModule:157 [ChooseRandomLegModeForSubtour] all 40 threads finished.
2023-08-21T13:47:05,370  INFO AbstractMultithreadedModule:142 [PlanRouter] starting 40 threads, handling 4828 plans
2023-08-21T13:47:05,370  INFO Counter:70 [PlanRouter] handled plan # 1
2023-08-21T13:47:05,370  INFO Counter:70 [PlanRouter] handled plan # 4
2023-08-21T13:47:05,370  INFO Counter:70 [PlanRouter] handled plan # 2
2023-08-21T13:47:05,370  INFO Counter:70 [PlanRouter] handled plan # 8
2023-08-21T13:47:05,370  INFO Counter:70 [PlanRouter] handled plan # 16
2023-08-21T13:47:05,370  INFO Counter:70 [PlanRouter] handled plan # 32
2023-08-21T13:47:05,371  INFO Counter:70 [PlanRouter] handled plan # 64
2023-08-21T13:47:05,371  INFO Counter:70 [PlanRouter] handled plan # 128
2023-08-21T13:47:05,371  INFO Counter:70 [PlanRouter] handled plan # 256
2023-08-21T13:47:05,372  INFO Counter:70 [PlanRouter] handled plan # 512
2023-08-21T13:47:05,375  INFO Counter:70 [PlanRouter] handled plan # 1024
2023-08-21T13:47:05,378  INFO Counter:70 [PlanRouter] handled plan # 2048
2023-08-21T13:47:05,478  INFO Counter:70 [PlanRouter] handled plan # 4096
2023-08-21T13:47:05,481  INFO AbstractMultithreadedModule:157 [PlanRouter] all 40 threads finished.
2023-08-21T13:47:05,481  INFO GenericPlanStrategyImpl:127 Plan-Strategy finished, 4828 plans handled. Strategy: RandomPlanSelector_SubtourModeChoice_ReRoute
2023-08-21T13:47:05,481  INFO AbstractMultithreadedModule:142 [PlanRouter] starting 40 threads, handling 4854 plans
2023-08-21T13:47:05,481  INFO Counter:70 [PlanRouter] handled plan # 1
2023-08-21T13:47:05,481  INFO Counter:70 [PlanRouter] handled plan # 2
2023-08-21T13:47:05,482  INFO Counter:70 [PlanRouter] handled plan # 8
2023-08-21T13:47:05,482  INFO Counter:70 [PlanRouter] handled plan # 4
2023-08-21T13:47:05,482  INFO Counter:70 [PlanRouter] handled plan # 32
2023-08-21T13:47:05,482  INFO Counter:70 [PlanRouter] handled plan # 16
2023-08-21T13:47:05,482  INFO Counter:70 [PlanRouter] handled plan # 64
2023-08-21T13:47:05,482  INFO Counter:70 [PlanRouter] handled plan # 128
2023-08-21T13:47:05,483  INFO Counter:70 [PlanRouter] handled plan # 256
2023-08-21T13:47:05,484  INFO Counter:70 [PlanRouter] handled plan # 512
2023-08-21T13:47:05,487  INFO Counter:70 [PlanRouter] handled plan # 1024
2023-08-21T13:47:05,492  INFO Counter:70 [PlanRouter] handled plan # 2048
2023-08-21T13:47:05,503  INFO Counter:70 [PlanRouter] handled plan # 4096
2023-08-21T13:47:05,509  INFO AbstractMultithreadedModule:157 [PlanRouter] all 40 threads finished.
2023-08-21T13:47:05,509  INFO GenericPlanStrategyImpl:127 Plan-Strategy finished, 4854 plans handled. Strategy: RandomPlanSelector_ReRoute
2023-08-21T13:47:05,509  INFO AbstractMultithreadedModule:142 [PlanMutateTimeAllocationSimplified] starting 40 threads, handling 4856 plans
2023-08-21T13:47:05,509  INFO Counter:70 [PlanMutateTimeAllocationSimplified] handled plan # 2
2023-08-21T13:47:05,509  INFO Counter:70 [PlanMutateTimeAllocationSimplified] handled plan # 1
2023-08-21T13:47:05,509  INFO Counter:70 [PlanMutateTimeAllocationSimplified] handled plan # 4
2023-08-21T13:47:05,509  INFO Counter:70 [PlanMutateTimeAllocationSimplified] handled plan # 8
2023-08-21T13:47:05,509  INFO Counter:70 [PlanMutateTimeAllocationSimplified] handled plan # 32
2023-08-21T13:47:05,509  INFO Counter:70 [PlanMutateTimeAllocationSimplified] handled plan # 16
2023-08-21T13:47:05,509  INFO Counter:70 [PlanMutateTimeAllocationSimplified] handled plan # 128
2023-08-21T13:47:05,509  INFO Counter:70 [PlanMutateTimeAllocationSimplified] handled plan # 256
2023-08-21T13:47:05,509  INFO Counter:70 [PlanMutateTimeAllocationSimplified] handled plan # 64
2023-08-21T13:47:05,509  INFO Counter:70 [PlanMutateTimeAllocationSimplified] handled plan # 512
2023-08-21T13:47:05,509  INFO Counter:70 [PlanMutateTimeAllocationSimplified] handled plan # 1024
2023-08-21T13:47:05,510  INFO Counter:70 [PlanMutateTimeAllocationSimplified] handled plan # 2048
2023-08-21T13:47:05,511  INFO Counter:70 [PlanMutateTimeAllocationSimplified] handled plan # 4096
2023-08-21T13:47:05,511  INFO AbstractMultithreadedModule:157 [PlanMutateTimeAllocationSimplified] all 40 threads finished.
2023-08-21T13:47:05,511  INFO GenericPlanStrategyImpl:127 Plan-Strategy finished, 4856 plans handled. Strategy: RandomPlanSelector_TimeAllocationMutatorModule
2023-08-21T13:47:05,511  INFO ControlerListenerManagerImpl:214 [it.19] all ControlerReplanningListeners called.
2023-08-21T13:47:05,511  INFO ControlerListenerManagerImpl:225 calling notifyBeforeMobsim on org.matsim.core.controler.corelisteners.EventsHandlingImpl
2023-08-21T13:47:05,511  INFO EventsManagerImpl:168 resetting Event-Handlers
2023-08-21T13:47:05,511  INFO EventsManagerImpl:175   org.matsim.core.trafficmonitoring.TravelTimeCalculator
2023-08-21T13:47:05,511  INFO EventsManagerImpl:175   org.matsim.analysis.VolumesAnalyzer
2023-08-21T13:47:05,511  INFO EventsManagerImpl:175   org.matsim.core.scoring.ScoringFunctionsForPopulation
2023-08-21T13:47:05,511  INFO EventsManagerImpl:175   org.matsim.analysis.LegHistogram
2023-08-21T13:47:05,511  INFO EventsManagerImpl:175   org.matsim.analysis.CalcLegTimes
2023-08-21T13:47:05,512  INFO EventsManagerImpl:175   ch.sbb.matsim.routing.pt.raptor.SwissRailRaptorFactory$$Lambda$275/0x0000000800fa6b20
2023-08-21T13:47:05,512  INFO ControlerListenerManagerImpl:225 calling notifyBeforeMobsim on org.matsim.core.controler.corelisteners.PlansDumpingImpl
2023-08-21T13:47:05,512  INFO ControlerListenerManagerImpl:230 calling notifyBeforeMobsim on org.matsim.core.population.VspPlansCleaner
2023-08-21T13:47:05,547  INFO ControlerListenerManagerImpl:233 [it.19] all ControlerBeforeMobsimListeners called.
2023-08-21T13:47:05,547  INFO PrepareForMobsimImpl:87 Network seems to be multimodal. Create car-only network which is handed over to PersonPrepareForSim.
2023-08-21T13:47:05,547  INFO NetworkImpl:165  node # 1
2023-08-21T13:47:05,547  INFO NetworkImpl:165  node # 4
2023-08-21T13:47:05,547  INFO NetworkImpl:165  node # 16
2023-08-21T13:47:05,547  INFO NetworkImpl:165  node # 64
2023-08-21T13:47:05,547  INFO NetworkImpl:165  node # 256
2023-08-21T13:47:05,547  INFO NetworkImpl:161  link # 1
2023-08-21T13:47:05,547  INFO NetworkImpl:161  link # 4
2023-08-21T13:47:05,547  INFO NetworkImpl:161  link # 16
2023-08-21T13:47:05,547  INFO NetworkImpl:161  link # 64
2023-08-21T13:47:05,548  INFO NetworkImpl:161  link # 256
2023-08-21T13:47:05,559  INFO Counter:70 [PersonPrepareForSim] handled person # 2
2023-08-21T13:47:05,559  INFO Counter:70 [PersonPrepareForSim] handled person # 8
2023-08-21T13:47:05,559  INFO Counter:70 [PersonPrepareForSim] handled person # 16
2023-08-21T13:47:05,559  INFO Counter:70 [PersonPrepareForSim] handled person # 4
2023-08-21T13:47:05,559  INFO Counter:70 [PersonPrepareForSim] handled person # 32
2023-08-21T13:47:05,560  INFO Counter:70 [PersonPrepareForSim] handled person # 64
2023-08-21T13:47:05,559  INFO Counter:70 [PersonPrepareForSim] handled person # 1
2023-08-21T13:47:05,560  INFO Counter:70 [PersonPrepareForSim] handled person # 128
2023-08-21T13:47:05,560  INFO Counter:70 [PersonPrepareForSim] handled person # 256
2023-08-21T13:47:05,560  INFO Counter:70 [PersonPrepareForSim] handled person # 512
2023-08-21T13:47:05,561  INFO Counter:70 [PersonPrepareForSim] handled person # 1024
2023-08-21T13:47:05,563  INFO Counter:70 [PersonPrepareForSim] handled person # 2048
2023-08-21T13:47:05,567  INFO Counter:70 [PersonPrepareForSim] handled person # 4096
2023-08-21T13:47:05,576  INFO Counter:70 [PersonPrepareForSim] handled person # 8192
2023-08-21T13:47:05,594  INFO Counter:70 [PersonPrepareForSim] handled person # 16384
2023-08-21T13:47:05,625  INFO Counter:70 [PersonPrepareForSim] handled person # 32768
2023-08-21T13:47:05,691  INFO Counter:70 [PersonPrepareForSim] handled person # 65536
2023-08-21T13:47:05,730  INFO Counter:75 [PersonPrepareForSim] handled person # 84110
2023-08-21T13:47:05,734  INFO MobsimListenerManager:50 calling addQueueSimulationListener
2023-08-21T13:47:05,734  INFO MobsimListenerManager:54   assigned class org.matsim.core.mobsim.framework.listeners.MobsimListener to interface org.matsim.vis.snapshotwriters.SnapshotWriterManager
2023-08-21T13:47:05,734  INFO MobsimListenerManager:54   assigned class org.matsim.core.mobsim.framework.listeners.MobsimListener to interface org.matsim.core.mobsim.framework.listeners.MobsimInitializedListener
2023-08-21T13:47:05,734  INFO MobsimListenerManager:54   assigned class org.matsim.core.mobsim.framework.listeners.MobsimListener to interface org.matsim.core.mobsim.framework.listeners.MobsimBeforeCleanupListener
2023-08-21T13:47:05,734  INFO MobsimListenerManager:54   assigned class org.matsim.core.mobsim.framework.listeners.MobsimListener to interface org.matsim.core.mobsim.framework.listeners.MobsimAfterSimStepListener
2023-08-21T13:47:05,734  INFO MobsimListenerManager:54   assigned class org.matsim.core.mobsim.framework.listeners.MobsimListener to interface org.matsim.core.mobsim.framework.listeners.MobsimListener
2023-08-21T13:47:05,735  INFO QSimProvider:131 Added MobsimEngine class org.matsim.core.mobsim.qsim.ActivityEngineDefaultImpl
2023-08-21T13:47:05,735  INFO QSimProvider:137 Added Activityhandler class org.matsim.core.mobsim.qsim.ActivityEngineDefaultImpl
2023-08-21T13:47:05,735  INFO QSimProvider:143 Added DepartureHandler class org.matsim.core.mobsim.qsim.qnetsimengine.VehicularDepartureHandler
2023-08-21T13:47:05,735  INFO QSimProvider:131 Added MobsimEngine class org.matsim.core.mobsim.qsim.qnetsimengine.QNetsimEngineWithThreadpool
2023-08-21T13:47:05,735  INFO QSimProvider:131 Added MobsimEngine class org.matsim.core.mobsim.qsim.DefaultTeleportationEngine
2023-08-21T13:47:05,735  INFO QSimProvider:143 Added DepartureHandler class org.matsim.core.mobsim.qsim.DefaultTeleportationEngine
2023-08-21T13:47:05,735  INFO QSimProvider:149 Added AgentSource class org.matsim.core.mobsim.qsim.agents.PopulationAgentSource
2023-08-21T13:47:05,735  INFO MobsimListenerManager:50 calling addQueueSimulationListener
2023-08-21T13:47:05,735  INFO MobsimListenerManager:54   assigned class org.matsim.core.mobsim.framework.listeners.MobsimListener to interface org.matsim.core.mobsim.framework.listeners.MobsimBeforeSimStepListener
2023-08-21T13:47:05,735  INFO MobsimListenerManager:54   assigned class org.matsim.core.mobsim.framework.listeners.MobsimListener to interface org.matsim.core.mobsim.qsim.messagequeueengine.MessageQueueEngine
2023-08-21T13:47:05,735  INFO MobsimListenerManager:54   assigned class org.matsim.core.mobsim.framework.listeners.MobsimListener to interface org.matsim.core.mobsim.framework.listeners.MobsimListener
2023-08-21T13:47:05,735  INFO QSimProvider:155 Added MobsimListener class org.matsim.core.mobsim.qsim.messagequeueengine.MessageQueueEngine
2023-08-21T13:47:05,735  INFO QSimProvider:131 Added MobsimEngine class org.matsim.core.mobsim.qsim.pt.TransitQSimEngine
2023-08-21T13:47:05,735  INFO QSimProvider:143 Added DepartureHandler class org.matsim.core.mobsim.qsim.pt.TransitQSimEngine
2023-08-21T13:47:05,735  INFO QSimProvider:149 Added AgentSource class org.matsim.core.mobsim.qsim.pt.TransitQSimEngine
2023-08-21T13:47:05,863  INFO ReconstructingUmlaufBuilder:133 Generating UmlaufStuecke ...
2023-08-21T13:47:05,863  INFO ReconstructingUmlaufBuilder:146 ... done generating UmlaufStuecke
2023-08-21T13:47:05,875  INFO AbstractQNetsimEngine:428 Assigned 8 nodes and 9 links to QSimEngineRunner #0
2023-08-21T13:47:05,875  INFO AbstractQNetsimEngine:428 Assigned 8 nodes and 17 links to QSimEngineRunner #1
2023-08-21T13:47:05,875  INFO AbstractQNetsimEngine:428 Assigned 7 nodes and 9 links to QSimEngineRunner #2
2023-08-21T13:47:05,875  INFO AbstractQNetsimEngine:428 Assigned 7 nodes and 7 links to QSimEngineRunner #3
2023-08-21T13:47:05,875  INFO AbstractQNetsimEngine:428 Assigned 7 nodes and 7 links to QSimEngineRunner #4
2023-08-21T13:47:05,875  INFO AbstractQNetsimEngine:428 Assigned 7 nodes and 7 links to QSimEngineRunner #5
2023-08-21T13:47:05,875  INFO AbstractQNetsimEngine:428 Assigned 7 nodes and 7 links to QSimEngineRunner #6
2023-08-21T13:47:05,875  INFO AbstractQNetsimEngine:428 Assigned 7 nodes and 8 links to QSimEngineRunner #7
2023-08-21T13:47:05,875  INFO AbstractQNetsimEngine:428 Assigned 7 nodes and 9 links to QSimEngineRunner #8
2023-08-21T13:47:05,875  INFO AbstractQNetsimEngine:428 Assigned 7 nodes and 7 links to QSimEngineRunner #9
2023-08-21T13:47:05,875  INFO AbstractQNetsimEngine:428 Assigned 7 nodes and 7 links to QSimEngineRunner #10
2023-08-21T13:47:05,875  INFO AbstractQNetsimEngine:428 Assigned 7 nodes and 9 links to QSimEngineRunner #11
2023-08-21T13:47:05,875  INFO AbstractQNetsimEngine:428 Assigned 7 nodes and 7 links to QSimEngineRunner #12
2023-08-21T13:47:05,875  INFO AbstractQNetsimEngine:428 Assigned 7 nodes and 7 links to QSimEngineRunner #13
2023-08-21T13:47:05,875  INFO AbstractQNetsimEngine:428 Assigned 7 nodes and 8 links to QSimEngineRunner #14
2023-08-21T13:47:05,875  INFO AbstractQNetsimEngine:428 Assigned 7 nodes and 13 links to QSimEngineRunner #15
2023-08-21T13:47:05,875  INFO AbstractQNetsimEngine:428 Assigned 7 nodes and 10 links to QSimEngineRunner #16
2023-08-21T13:47:05,875  INFO AbstractQNetsimEngine:428 Assigned 7 nodes and 9 links to QSimEngineRunner #17
2023-08-21T13:47:05,875  INFO AbstractQNetsimEngine:428 Assigned 7 nodes and 9 links to QSimEngineRunner #18
2023-08-21T13:47:05,875  INFO AbstractQNetsimEngine:428 Assigned 7 nodes and 9 links to QSimEngineRunner #19
2023-08-21T13:47:05,875  INFO AbstractQNetsimEngine:428 Assigned 7 nodes and 7 links to QSimEngineRunner #20
2023-08-21T13:47:05,875  INFO AbstractQNetsimEngine:428 Assigned 7 nodes and 10 links to QSimEngineRunner #21
2023-08-21T13:47:05,875  INFO AbstractQNetsimEngine:428 Assigned 7 nodes and 7 links to QSimEngineRunner #22
2023-08-21T13:47:05,875  INFO AbstractQNetsimEngine:428 Assigned 7 nodes and 7 links to QSimEngineRunner #23
2023-08-21T13:47:05,875  INFO AbstractQNetsimEngine:428 Assigned 7 nodes and 7 links to QSimEngineRunner #24
2023-08-21T13:47:05,875  INFO AbstractQNetsimEngine:428 Assigned 7 nodes and 7 links to QSimEngineRunner #25
2023-08-21T13:47:05,875  INFO AbstractQNetsimEngine:428 Assigned 7 nodes and 10 links to QSimEngineRunner #26
2023-08-21T13:47:05,875  INFO AbstractQNetsimEngine:428 Assigned 7 nodes and 7 links to QSimEngineRunner #27
2023-08-21T13:47:05,875  INFO AbstractQNetsimEngine:428 Assigned 7 nodes and 9 links to QSimEngineRunner #28
2023-08-21T13:47:05,875  INFO AbstractQNetsimEngine:428 Assigned 7 nodes and 7 links to QSimEngineRunner #29
2023-08-21T13:47:05,875  INFO AbstractQNetsimEngine:428 Assigned 7 nodes and 9 links to QSimEngineRunner #30
2023-08-21T13:47:05,875  INFO AbstractQNetsimEngine:428 Assigned 7 nodes and 9 links to QSimEngineRunner #31
2023-08-21T13:47:05,875  INFO AbstractQNetsimEngine:428 Assigned 7 nodes and 9 links to QSimEngineRunner #32
2023-08-21T13:47:05,875  INFO AbstractQNetsimEngine:428 Assigned 7 nodes and 7 links to QSimEngineRunner #33
2023-08-21T13:47:05,875  INFO AbstractQNetsimEngine:428 Assigned 7 nodes and 9 links to QSimEngineRunner #34
2023-08-21T13:47:05,875  INFO AbstractQNetsimEngine:428 Assigned 7 nodes and 7 links to QSimEngineRunner #35
2023-08-21T13:47:05,875  INFO AbstractQNetsimEngine:428 Assigned 7 nodes and 7 links to QSimEngineRunner #36
2023-08-21T13:47:05,875  INFO AbstractQNetsimEngine:428 Assigned 7 nodes and 7 links to QSimEngineRunner #37
2023-08-21T13:47:05,875  INFO AbstractQNetsimEngine:428 Assigned 7 nodes and 10 links to QSimEngineRunner #38
2023-08-21T13:47:05,875  INFO AbstractQNetsimEngine:428 Assigned 7 nodes and 7 links to QSimEngineRunner #39
2023-08-21T13:47:05,918  INFO AbstractQNetsimEngine:366 SIMULATION (QNetsimEngine) AT 04:33:03 : #links=0 #nodes=1
2023-08-21T13:47:05,918  INFO QSim:566 SIMULATION (NEW QSim) AT 04:33:03 : #Veh=86150 lost=0 simT=0.0s realT=0s; (s/r): 0.0
2023-08-21T13:47:06,030  INFO AbstractQNetsimEngine:366 SIMULATION (QNetsimEngine) AT 05:00:00 : #links=1 #nodes=0
2023-08-21T13:47:06,030  INFO QSim:566 SIMULATION (NEW QSim) AT 05:00:00 : #Veh=86150 lost=0 simT=1617.0s realT=0s; (s/r): Infinity
2023-08-21T13:47:06,295  INFO AbstractQNetsimEngine:366 SIMULATION (QNetsimEngine) AT 06:00:00 : #links=39 #nodes=9
2023-08-21T13:47:06,295  INFO QSim:566 SIMULATION (NEW QSim) AT 06:00:00 : #Veh=86150 lost=0 simT=5217.0s realT=0s; (s/r): Infinity
2023-08-21T13:47:06,818  INFO AbstractQNetsimEngine:366 SIMULATION (QNetsimEngine) AT 07:00:00 : #links=258 #nodes=67
2023-08-21T13:47:06,818  INFO QSim:566 SIMULATION (NEW QSim) AT 07:00:00 : #Veh=86044 lost=0 simT=8817.0s realT=1s; (s/r): 8817.0
2023-08-21T13:47:08,281  INFO AbstractQNetsimEngine:366 SIMULATION (QNetsimEngine) AT 08:00:00 : #links=297 #nodes=133
2023-08-21T13:47:08,281  INFO QSim:566 SIMULATION (NEW QSim) AT 08:00:00 : #Veh=85943 lost=0 simT=12417.0s realT=2s; (s/r): 6208.5
2023-08-21T13:47:09,146  INFO AbstractQNetsimEngine:366 SIMULATION (QNetsimEngine) AT 09:00:00 : #links=170 #nodes=31
2023-08-21T13:47:09,146  INFO QSim:566 SIMULATION (NEW QSim) AT 09:00:00 : #Veh=85733 lost=0 simT=16017.0s realT=3s; (s/r): 5339.0
2023-08-21T13:47:09,681  INFO AbstractQNetsimEngine:366 SIMULATION (QNetsimEngine) AT 10:00:00 : #links=161 #nodes=15
2023-08-21T13:47:09,681  INFO QSim:566 SIMULATION (NEW QSim) AT 10:00:00 : #Veh=84262 lost=0 simT=19617.0s realT=3s; (s/r): 6539.0
2023-08-21T13:47:10,186  INFO AbstractQNetsimEngine:366 SIMULATION (QNetsimEngine) AT 11:00:00 : #links=161 #nodes=20
2023-08-21T13:47:10,187  INFO QSim:566 SIMULATION (NEW QSim) AT 11:00:00 : #Veh=82118 lost=0 simT=23217.0s realT=4s; (s/r): 5804.25
