2023-08-21T15:19:46,325  INFO Gbl:64 JVM: 17.0.5; Oracle Corporation; mixed mode, sharing; 64-bit
2023-08-21T15:19:46,325  INFO Gbl:68 OS: Mac OS X; 13.4.1; aarch64
2023-08-21T15:19:46,325  INFO Gbl:71 CPU cores: 8
2023-08-21T15:19:46,326  INFO Gbl:72 max. Memory: 4096.0MB (4294967296B)
2023-08-21T15:19:46,327  INFO Gbl:110 MATSim-Build: ra76d70e12c1ca93f702007bdf2cc365001d5f50e (2023-04-12 08:36:22)
2023-08-21T15:19:46,329  INFO ControlerListenerManagerImpl:108 calling notifyStartup on org.matsim.core.controler.ControlerDefaultsModule$1
2023-08-21T15:19:46,329  INFO MemoryObserver:42 used RAM: 212 MB  free: 173 MB  total: 386 MB
2023-08-21T15:19:46,340  INFO ControlerListenerManagerImpl:108 calling notifyStartup on org.matsim.guice.DependencyGraphControlerListener
2023-08-21T15:19:46,396  INFO ControlerListenerManagerImpl:108 calling notifyStartup on org.matsim.counts.CountsControlerListener
2023-08-21T15:19:46,396  INFO ControlerListenerManagerImpl:108 calling notifyStartup on org.matsim.analysis.ModeStatsControlerListener
2023-08-21T15:19:46,396  INFO ControlerListenerManagerImpl:108 calling notifyStartup on org.matsim.analysis.ScoreStatsControlerListener
2023-08-21T15:19:46,396  INFO ControlerListenerManagerImpl:111 all ControlerStartupListeners called.
2023-08-21T15:19:46,396  INFO ControlerUtils:80 config dump before iterations start
2023-08-21T15:19:46,403  INFO ControlerUtils:84 

<?xml version="1.0" encoding="UTF-8"?>
<!DOCTYPE config SYSTEM "http://www.matsim.org/files/dtd/config_v2.dtd">
<config>
	<module name="JDEQSim" >
		<param name="carSize" value="7.5" />
		<param name="endTime" value="undefined" />
		<param name="flowCapacityFactor" value="1.0" />
		<param name="gapTravelSpeed" value="15.0" />
		<param name="minimumInFlowCapacity" value="1800.0" />
		<param name="squeezeTime" value="1800.0" />
		<param name="storageCapacityFactor" value="1.0" />
	</module>
	<module name="ReplanningAnnealer" >
		<!-- Activate the scaling of replanning modules using an annealing approach rather than fixed rates. -->
		<param name="activateAnnealingModule" value="false" />
	</module>
	<module name="TimeAllocationMutator" >
		<!-- Default:true; Defines whether time mutation changes an activity's duration. -->
		<param name="mutationAffectsDuration" value="true" />
		<!-- Default:1800.0; Defines how many seconds a time mutation can maximally shift a time. -->
		<param name="mutationRange" value="3600.0" />
	</module>
	<module name="changeMode" >
		<!-- Defines whether car availability is considered be considered or not. An agent has no car only if it has no license, or never access to a car. Default: true -->
		<param name="ignoreCarAvailability" value="true" />
		<!-- Defines the mode switch behavior. Possible values [fromAllModesToSpecifiedModes, fromSpecifiedModesToSpecifiedModes] Default: fromSpecifiedModesToSpecifiedModes. -->
		<param name="modeSwitchBehavior" value="fromSpecifiedModesToSpecifiedModes" />
		<!-- Defines all the modes available, including chain-based modes, seperated by commas -->
		<param name="modes" value="car,pt" />
	</module>
	<module name="controler" >
		<!-- Defines what should be done with the ITERS directory when a simulation finished successfully -->
		<param name="cleanItersAtEnd" value="keep" />
		<!-- Compression algorithm to use when writing out data to files. Possible values: [none, gzip, lz4, zst] -->
		<param name="compressionType" value="gzip" />
		<!-- Sets whether graphs showing some analyses should automatically be generated during the simulation. The generation of graphs usually takes a small amount of time that does not have any weight in big simulations, but add a significant overhead in smaller runs or in test cases where the graphical output is not even requested. -->
		<param name="createGraphs" value="true" />
		<!-- Defines when the scoring functions for the population are created. Default=IterationStarts. Possible values: [IterationStarts, BeforeMobsim] -->
		<param name="createScoringFunctionType" value="IterationStarts" />
		<!-- true if at the end of a run, plans, network, config etc should be dumped to a file -->
		<param name="dumpDataAtEnd" value="true" />
		<!-- Default=false. If enabled, the router takes travel times needed for turning moves into account. Cannot be used if the (Fast)AStarLandmarks routing or TravelTimeCalculator.separateModes is enabled. -->
		<param name="enableLinkToLinkRouting" value="false" />
		<!-- Default=xml; Specifies the file format for writing events. Currently supported: [xml, pb, json]
		Multiple values can be specified separated by commas (','). -->
		<param name="eventsFileFormat" value="xml" />
		<!-- Default=0. First Iteration of a simulation. -->
		<param name="firstIteration" value="0" />
		<!-- Default=1000. Last Iteration of a simulation. -->
		<param name="lastIteration" value="150" />
		<!-- Defines which mobility simulation will be used. Currently supported: qsim JDEQSim hermes 
		Depending on the chosen mobsim, you'll have to add additional config modules to configure the corresponding mobsim.
		For 'qsim', add a module 'qsim' to the config. -->
		<param name="mobsim" value="qsim" />
		<param name="outputDirectory" value="output_2/" />
		<!-- Possible values: failIfDirectoryExists,overwriteExistingFiles,deleteDirectoryIfExists -->
		<param name="overwriteFiles" value="deleteDirectoryIfExists" />
		<!-- The type of routing (least cost path) algorithm used, may have the values: [Dijkstra, AStarLandmarks, FastDijkstra, FastAStarLandmarks, SpeedyALT] -->
		<param name="routingAlgorithmType" value="Dijkstra" />
		<!-- An identifier for the current run which is used as prefix for output files and mentioned in output xml files etc. -->
		<param name="runId" value="run0" />
		<!-- Comma-separated list of visualizer output file formats. `transims' and `otfvis'. -->
		<param name="snapshotFormat" value="" />
		<!-- iterationNumber % writeEventsInterval == 0 defines in which iterations events are written to a file. `0' disables events writing completely. -->
		<param name="writeEventsInterval" value="1000" />
		<!-- iterationNumber % writePlansInterval == 0 defines (hopefully) in which iterations plans are written to a file. `0' disables plans writing completely.  Some plans in early iterations are always written -->
		<param name="writePlansInterval" value="1000" />
		<!-- iterationNumber % writeSnapshotsInterval == 0 defines in which iterations snapshots are written to a file. `0' disables snapshots writing completely -->
		<param name="writeSnapshotsInterval" value="1" />
		<!-- iterationNumber % writeEventsInterval == 0 defines in which iterations trips CSV are written to a file. `0' disables trips writing completely. -->
		<param name="writeTripsInterval" value="50" />
	</module>
	<module name="counts" >
		<!-- Transport modes that will be respected for the counts comparison. 'car' is default, which includes also bussed from the pt simulation module. Use this parameter in combination with 'filterModes' = true! -->
		<param name="analyzedModes" value="car" />
		<!-- Specifies over how many iterations the link volumes should be averaged that are used for the counts comparison. Use 1 or 0 to only use the link volumes of a single iteration. This values cannot be larger than the value specified for writeCountsInterval -->
		<param name="averageCountsOverIterations" value="5" />
		<!-- factor by which to re-scale the simulated values.  necessary when simulation runs with something different from 100%.  needs to be adapted manually -->
		<param name="countsScaleFactor" value="1.0" />
		<!-- distance to distanceFilterCenterNode to include counting stations. The unit of distance is the Euclidean distance implied by the coordinate system -->
		<param name="distanceFilter" value="null" />
		<!-- node id for center node of distance filter -->
		<param name="distanceFilterCenterNode" value="null" />
		<!-- If true, link counts from legs performed on modes not included in the 'analyzedModes' parameter are ignored. -->
		<param name="filterModes" value="false" />
		<!-- The Coordinates Reference System in which the coordinates are expressed in the input file. At import, the coordinates will be converted to the coordinate system defined in "global", and willbe converted back at export. If not specified, no conversion happens. -->
		<param name="inputCRS" value="null" />
		<!-- input file name to counts package -->
		<param name="inputCountsFile" value="null" />
		<!-- possible values: `html', `txt', `all' -->
		<param name="outputformat" value="txt" />
		<!-- Specifies how often the counts comparison should be calculated and written. -->
		<param name="writeCountsInterval" value="10" />
	</module>
	<module name="facilities" >
		<!-- This defines how facilities should be created. Possible values: none fromFile setInScenario onePerActivityLinkInPlansFile onePerActivityLinkInPlansFileExceptWhenCoordinatesAreGiven onePerActivityLocationInPlansFile  -->
		<param name="facilitiesSource" value="fromFile" />
		<!-- A prefix to be used for auto-generated IDs. -->
		<param name="idPrefix" value="f_auto_" />
		<!-- The Coordinates Reference System in which the coordinates are expressed in the input file. At import, the coordinates will be converted to the coordinate system defined in "global", and willbe converted back at export. If not specified, no conversion happens. -->
		<param name="inputCRS" value="null" />
		<param name="inputFacilitiesFile" value="siouxfalls-2014/Siouxfalls_facilities.xml.gz" />
		<param name="inputFacilityAttributesFile" value="null" />
		<param name="insistingOnUsingDeprecatedFacilitiesAttributeFile" value="false" />
	</module>
	<module name="global" >
		<param name="coordinateSystem" value="Atlantis" />
		<param name="defaultDelimiter" value=";" />
		<param name="insistingOnDeprecatedConfigVersion" value="true" />
		<!-- "global" number of threads.  This number is used, e.g., for replanning, but NOT in QSim.  This can typically be set to as many cores as you have available, or possibly even slightly more. -->
		<param name="numberOfThreads" value="40" />
		<param name="randomSeed" value="4711" />
	</module>
	<module name="hermes" >
		<!-- Simulation End Time -->
		<param name="endTime" value="30:00:00" />
		<param name="flowCapacityFactor" value="1.0" />
		<param name="mainMode" value="car" />
		<param name="storageCapacityFactor" value="1.0" />
		<!-- time in seconds.  Time after which the frontmost vehicle on a link is called `stuck' if it does not move. Set to Integer.MAX_VALUE to disable this behavior -->
		<param name="stuckTime" value="10" />
		<!-- treats PT as deterministic. PT vehicles will run with a steady speed. Should be used with separate network layers for PT and other network modes. -->
		<param name="useDeterministicPt" value="false" />
	</module>
	<module name="households" >
		<param name="inputFile" value="null" />
		<param name="inputHouseholdAttributesFile" value="null" />
		<param name="insistingOnUsingDeprecatedHouseholdsAttributeFile" value="false" />
	</module>
	<module name="linkStats" >
		<!-- Specifies over how many iterations the link volumes should be averaged that are used for the link statistics. Use 1 or 0 to only use the link volumes of a single iteration. This values cannot be larger than the value specified for writeLinkStatsInterval -->
		<param name="averageLinkStatsOverIterations" value="5" />
		<!-- Specifies how often the link stats should be calculated and written. Use 0 to disable the generation of link stats. -->
		<param name="writeLinkStatsInterval" value="50" />
	</module>
	<module name="network" >
		<!-- The Coordinates Reference System in which the coordinates are expressed in the input file. At import, the coordinates will be converted to the coordinate system defined in "global", and willbe converted back at export. If not specified, no conversion happens. -->
		<param name="inputCRS" value="null" />
		<param name="inputChangeEventsFile" value="null" />
		<param name="inputNetworkFile" value="siouxfalls-2014/Siouxfalls_network_PT.xml" />
		<param name="laneDefinitionsFile" value="null" />
		<param name="timeVariantNetwork" value="false" />
	</module>
	<module name="parallelEventHandling" >
		<!-- Estimated number of events during mobsim run. An optional optimization hint for the framework. -->
		<param name="estimatedNumberOfEvents" value="null" />
		<!-- Size of the events Queue. Increase for very large scenarios -->
		<param name="eventsQueueSize" value="131072" />
		<!-- Number of threads for parallel events handler. _null_ means the framework decides by itself. 0 is currently not possible. -->
		<param name="numberOfThreads" value="null" />
		<!-- If enabled, each event handler is assigned to its own thread. Note that enabling this feature disabled the numberOfThreads option! This feature is still experimental! -->
		<param name="oneThreadPerHandler" value="false" />
		<!-- If enabled, it is ensured that all events that are created during a time step of the mobility simulation are processed before the next time step is simulated. E.g. neccessary when within-day replanning is used. -->
		<param name="synchronizeOnSimSteps" value="true" />
	</module>
	<module name="planCalcScore" >
		<!-- logit model scale parameter. default: 1.  Has name and default value for historical reasons (see Bryan Raney's phd thesis). -->
		<param name="BrainExpBeta" value="1.0" />
		<param name="PathSizeLogitBeta" value="1.0" />
		<!-- fraction of iterations at which MSA score averaging is started. The matsim theory department suggests to use this together with switching off choice set innovation (where a similar switch exists), but it has not been tested yet. -->
		<param name="fractionOfIterationsToStartScoreMSA" value="1.0" />
		<!-- new_score = (1-learningRate)*old_score + learningRate * score_from_mobsim.  learning rates close to zero emulate score averaging, but slow down initial convergence -->
		<param name="learningRate" value="1.0" />
		<!-- There used to be a plateau between duration=0 and duration=zeroUtilityDuration. This caused durations to evolve to zero once they were below zeroUtilityDuration, causing problems.  Only use this switch if you need to be backwards compatible with some old results.  (changed nov'13) -->
		<param name="usingOldScoringBelowZeroUtilityDuration" value="false" />
		<!-- write a plans file in each iteration directory which contains what each agent actually did, and the score it received. -->
		<param name="writeExperiencedPlans" value="false" />
		<parameterset type="scoringParameters" >
			<param name="earlyDeparture" value="0.0" />
			<param name="lateArrival" value="0.0" />
			<param name="marginalUtilityOfMoney" value="0.062" />
			<param name="performing" value="0.96" />
			<param name="subpopulation" value="null" />
			<param name="utilityOfLineSwitch" value="0.0" />
			<param name="waiting" value="-0.0" />
			<param name="waitingPt" value="-0.18" />
			<parameterset type="activityParams" >
				<param name="activityType" value="home" />
				<param name="closingTime" value="undefined" />
				<param name="earliestEndTime" value="undefined" />
				<param name="latestStartTime" value="undefined" />
				<param name="minimalDuration" value="01:00:00" />
				<param name="openingTime" value="undefined" />
				<param name="priority" value="1.0" />
				<param name="scoringThisActivityAtAll" value="true" />
				<!-- typical duration of activity.  needs to be defined and non-zero.  in sec. -->
				<param name="typicalDuration" value="13:00:00" />
				<!-- method to compute score at typical duration.  Options: | uniform | relative | Use uniform for backwards compatibility (all activities same score; higher proba to drop long acts). -->
				<param name="typicalDurationScoreComputation" value="relative" />
			</parameterset>
			<parameterset type="activityParams" >
				<param name="activityType" value="work" />
				<param name="closingTime" value="18:00:00" />
				<param name="earliestEndTime" value="17:00:00" />
				<param name="latestStartTime" value="09:00:00" />
				<param name="minimalDuration" value="02:26:16" />
				<param name="openingTime" value="08:00:00" />
				<param name="priority" value="1.0" />
				<param name="scoringThisActivityAtAll" value="true" />
				<param name="typicalDuration" value="09:45:05" />
				<param name="typicalDurationScoreComputation" value="relative" />
			</parameterset>
			<parameterset type="activityParams" >
				<param name="activityType" value="secondary" />
				<param name="closingTime" value="20:00:00" />
				<param name="earliestEndTime" value="undefined" />
				<param name="latestStartTime" value="undefined" />
				<param name="minimalDuration" value="00:15:00" />
				<param name="openingTime" value="08:00:00" />
				<param name="priority" value="1.0" />
				<param name="scoringThisActivityAtAll" value="true" />
				<param name="typicalDuration" value="01:00:00" />
				<param name="typicalDurationScoreComputation" value="relative" />
			</parameterset>
			<parameterset type="activityParams" >
				<param name="activityType" value="car interaction" />
				<param name="closingTime" value="undefined" />
				<param name="earliestEndTime" value="undefined" />
				<param name="latestStartTime" value="undefined" />
				<param name="minimalDuration" value="undefined" />
				<param name="openingTime" value="undefined" />
				<param name="priority" value="1.0" />
				<param name="scoringThisActivityAtAll" value="false" />
				<param name="typicalDuration" value="undefined" />
				<param name="typicalDurationScoreComputation" value="relative" />
			</parameterset>
			<parameterset type="activityParams" >
				<param name="activityType" value="pt interaction" />
				<param name="closingTime" value="undefined" />
				<param name="earliestEndTime" value="undefined" />
				<param name="latestStartTime" value="undefined" />
				<param name="minimalDuration" value="undefined" />
				<param name="openingTime" value="undefined" />
				<param name="priority" value="1.0" />
				<param name="scoringThisActivityAtAll" value="false" />
				<param name="typicalDuration" value="undefined" />
				<param name="typicalDurationScoreComputation" value="relative" />
			</parameterset>
			<parameterset type="activityParams" >
				<param name="activityType" value="walk interaction" />
				<param name="closingTime" value="undefined" />
				<param name="earliestEndTime" value="undefined" />
				<param name="latestStartTime" value="undefined" />
				<param name="minimalDuration" value="undefined" />
				<param name="openingTime" value="undefined" />
				<param name="priority" value="1.0" />
				<param name="scoringThisActivityAtAll" value="false" />
				<param name="typicalDuration" value="undefined" />
				<param name="typicalDurationScoreComputation" value="relative" />
			</parameterset>
			<parameterset type="modeParams" >
				<!-- [utils] alternative-specific constant.  Normally per trip, but that is probably buggy for multi-leg trips. -->
				<param name="constant" value="10.438" />
				<!-- [unit_of_money/day] Fixed cost of mode, per day. -->
				<param name="dailyMonetaryConstant" value="0.0" />
				<!-- [utils] daily utility constant. default=0 to be backwards compatible -->
				<param name="dailyUtilityConstant" value="0.0" />
				<!-- [utils/m] utility of traveling (e.g. walking or driving) per m, normally negative.  this is on top of the time (dis)utility. -->
				<param name="marginalUtilityOfDistance_util_m" value="0.0" />
				<!-- [utils/hr] additional marginal utility of traveling.  normally negative.  this comes on top of the opportunity cost of time -->
				<param name="marginalUtilityOfTraveling_util_hr" value="0.0" />
				<param name="mode" value="car" />
				<!-- [unit_of_money/m] conversion of distance into money. Normally negative. -->
				<param name="monetaryDistanceRate" value="-4.0E-4" />
			</parameterset>
			<parameterset type="modeParams" >
				<param name="constant" value="11.645999999999999" />
				<param name="dailyMonetaryConstant" value="0.0" />
				<param name="dailyUtilityConstant" value="0.0" />
				<param name="marginalUtilityOfDistance_util_m" value="0.0" />
				<param name="marginalUtilityOfTraveling_util_hr" value="-0.18" />
				<param name="mode" value="pt" />
				<param name="monetaryDistanceRate" value="0.0" />
			</parameterset>
			<parameterset type="modeParams" >
				<param name="constant" value="0.0" />
				<param name="dailyMonetaryConstant" value="0.0" />
				<param name="dailyUtilityConstant" value="0.0" />
				<param name="marginalUtilityOfDistance_util_m" value="0.0" />
				<param name="marginalUtilityOfTraveling_util_hr" value="-1.14" />
				<param name="mode" value="walk" />
				<param name="monetaryDistanceRate" value="0.0" />
			</parameterset>
		</parameterset>
	</module>
	<module name="plans" >
		<!-- String: minOfDurationAndEndTime tryEndTimeThenDuration endTimeOnly. Anything besides minOfDurationAndEndTime will internally use a different (simpler) version of the TimeAllocationMutator. -->
		<param name="activityDurationInterpretation" value="tryEndTimeThenDuration" />
		<!-- Possible values: reject,useMainModeIdentifier -->
		<param name="handlingOfPlansWithoutRoutingMode" value="reject" />
		<!-- The Coordinates Reference System in which the coordinates are expressed in the input file. At import, the coordinates will be converted to the coordinate system defined in "global", and willbe converted back at export. If not specified, no conversion happens. -->
		<param name="inputCRS" value="null" />
		<param name="inputPersonAttributesFile" value="null" />
		<param name="inputPlansFile" value="siouxfalls-2014/Siouxfalls_population.xml.gz" />
		<param name="insistingOnUsingDeprecatedPersonAttributeFile" value="false" />
		<!-- Defines how routes are stored in memory. Currently supported: LinkNetworkRoute, MediumCompressedNetworkRoute, HeavyCompressedNetworkRoute. -->
		<param name="networkRouteType" value="LinkNetworkRoute" />
		<!-- (not tested) will remove plan attributes that are presumably not used, such as activityStartTime. default=false. Use with Caution! -->
		<param name="removingUnnecessaryPlanAttributes" value="false" />
		<!-- Defines how departure times are interpreted in rerouting applications. If set to 'ignoreDelays', the departure time of a trip when routing along a plan will always be the nominal (plan-based) activity end time. If set to 'shiftActivityEndTimes', routing along a plan will accumulate travel times and shift activity end times if necessary -->
		<param name="tripDurationHandling" value="ignoreDelays" />
	</module>
	<module name="planscalcroute" >
		<!-- Defines how access and egress to main mode is simulated. Either of [none, accessEgressModeToLink, walkConstantTimeToLink, accessEgressModeToLinkPlusTimeConstant], Current default=none which means no access or egress trips are simulated. -->
		<param name="accessEgressType" value="none" />
		<!-- Some typical teleportation routing params are set by default, such as for walk and bike.  Setting this switch to "true" will clear them.  Note that this will also clear settings for helper modes such as for non_network_walk -->
		<param name="clearDefaultTeleportedModeParams" value="false" />
		<!-- All the modes for which the router is supposed to generate network routes (like car) -->
		<param name="networkModes" value="car" />
		<!-- strength of the randomness for the utility of money in routing under toll.  Leads to Pareto-optimal route with randomly drawn money-vs-other-attributes tradeoff. Technically the width parameter of a log-normal distribution. 3.0 seems to be a good value.  -->
		<param name="routingRandomness" value="3.0" />
		<parameterset type="teleportedModeParameters" >
			<param name="beelineDistanceFactor" value="1.3" />
			<param name="mode" value="bike" />
			<!-- Free-speed factor for a teleported mode. Travel time = teleportedModeFreespeedFactor * <freespeed car travel time>. Insert a line like this for every such mode. Please do not set teleportedModeFreespeedFactor as well as teleportedModeSpeed for the same mode, but if you do, +teleportedModeFreespeedFactor wins over teleportedModeSpeed. -->
			<param name="teleportedModeFreespeedFactor" value="null" />
			<!-- Speed for a teleported mode. Travel time = (<beeline distance> * beelineDistanceFactor) / teleportedModeSpeed. Insert a line like this for every such mode. -->
			<param name="teleportedModeSpeed" value="4.166666666666667" />
		</parameterset>
		<parameterset type="teleportedModeParameters" >
			<param name="beelineDistanceFactor" value="1.3" />
			<param name="mode" value="walk" />
			<param name="teleportedModeFreespeedFactor" value="null" />
			<param name="teleportedModeSpeed" value="0.8333333333333333" />
		</parameterset>
		<parameterset type="teleportedModeParameters" >
			<param name="beelineDistanceFactor" value="1.3" />
			<param name="mode" value="non_network_walk" />
			<param name="teleportedModeFreespeedFactor" value="null" />
			<param name="teleportedModeSpeed" value="0.8333333333333333" />
		</parameterset>
		<parameterset type="teleportedModeParameters" >
			<param name="beelineDistanceFactor" value="1.3" />
			<param name="mode" value="ride" />
			<param name="teleportedModeFreespeedFactor" value="1.0" />
			<param name="teleportedModeSpeed" value="null" />
		</parameterset>
		<parameterset type="teleportedModeParameters" >
			<param name="beelineDistanceFactor" value="1.3" />
			<param name="mode" value="pt" />
			<param name="teleportedModeFreespeedFactor" value="2.0" />
			<param name="teleportedModeSpeed" value="null" />
		</parameterset>
	</module>
	<module name="ptCounts" >
		<!-- factor by which to re-scale the simulated values.  necessary when simulation runs with something different from 100%.  needs to be adapted manually -->
		<param name="countsScaleFactor" value="1.0" />
		<!-- distance to distanceFilterCenterNode to include counting stations. The unit of distance is the Euclidean distance implied by the coordinate system -->
		<param name="distanceFilter" value="null" />
		<!-- node id for center node of distance filter -->
		<param name="distanceFilterCenterNode" value="null" />
		<!-- input file containing the alighting (getting off) counts for pt -->
		<param name="inputAlightCountsFile" value="null" />
		<!-- input file containing the boarding (getting on) counts for pt -->
		<param name="inputBoardCountsFile" value="null" />
		<!-- input file containing the occupancy counts for pt -->
		<param name="inputOccupancyCountsFile" value="null" />
		<!-- possible values: `html', `txt', `all' -->
		<param name="outputformat" value="null" />
		<!-- every how many iterations (starting with 0) counts comparisons are generated -->
		<param name="ptCountsInterval" value="10" />
	</module>
	<module name="qsim" >
		<param name="endTime" value="30:00:00" />
		<!-- If set to withLinkAttributes snapshots will only be generated for links which include generateSnapshotForLink as attribute key. Default is no filtering. -->
		<param name="filterSnapshots" value="no" />
		<param name="flowCapacityFactor" value="1.0" />
		<!-- decides if waiting vehicles enter the network after or before the already driving vehicles were moved. Default: false -->
		<param name="insertingWaitingVehiclesBeforeDrivingVehicles" value="true" />
		<!-- If link dynamics is set as SeepageQ, set to false if all seep modes should perform seepage. Default is true (better option). -->
		<param name="isRestrictingSeepage" value="true" />
		<!-- If link dynamics is set as SeepageQ, set to true if seep mode do not consumes any space on the link. Default is false. -->
		<param name="isSeepModeStorageFree" value="false" />
		<!-- default: FIFO; options: FIFO PassingQ SeepageQ -->
		<param name="linkDynamics" value="FIFO" />
		<!-- The (initial) width of the links of the network. Use positive floating point values. This is used only for visualisation. -->
		<param name="linkWidth" value="30.0" />
		<!-- [comma-separated list] Defines which modes are congested modes. Technically, these are the modes that the departure handler of the netsimengine handles.  Effective cell size, effective lane width, flow capacity factor, and storage capacity factor need to be set with diligence.  Need to be vehicular modes to make sense. -->
		<param name="mainMode" value="car" />
		<!-- Shortens a link in the visualization, i.e. its start and end point are moved into towards the center. Does not affect traffic flow.  -->
		<param name="nodeOffset" value="0.0" />
		<!-- Number of threads used for the QSim.  Note that this setting is independent from the "global" threads setting.  In contrast to earlier versions, the non-parallel special version is no longer there. -->
		<param name="numberOfThreads" value="40" />
		<!-- Boolean. `true': stuck vehicles are removed, aborting the plan; `false': stuck vehicles are forced into the next link. `false' is probably the better choice. -->
		<param name="removeStuckVehicles" value="false" />
		<!-- If link dynamics is set as SeepageQ, set a seep mode. Default is bike. -->
		<param name="seepMode" value="bike" />
		<!-- Possible values: minOfEndtimeAndMobsimFinished,onlyUseEndtime -->
		<param name="simEndtimeInterpretation" value="null" />
		<!-- Options: maxOfStarttimeAndEarliestActivityEnd onlyUseStarttime  -->
		<param name="simStarttimeInterpretation" value="maxOfStarttimeAndEarliestActivityEnd" />
		<!-- snapshotStyle. One of: equiDist queue withHoles withHolesAndShowHoles kinematicWaves  -->
		<param name="snapshotStyle" value="queue" />
		<param name="snapshotperiod" value="00:00:01" />
		<param name="startTime" value="00:00:00" />
		<param name="storageCapacityFactor" value="1.0" />
		<!-- time in seconds.  Time after which the frontmost vehicle on a link is called `stuck' if it does not move. -->
		<param name="stuckTime" value="3600.0" />
		<param name="timeStepSize" value="00:00:01" />
		<!-- options: queue withHoles kinematicWaves  -->
		<param name="trafficDynamics" value="queue" />
		<!-- Set this parameter to true if lanes should be used, false if not. -->
		<param name="useLanes" value="false" />
		<!-- If a route does not reference a vehicle, agents will use the vehicle with the same id as their own. -->
		<param name="usePersonIdForMissingVehicleId" value="true" />
		<!-- If false, the qsim accumulates fractional flows up to one flow unit in every time step.  If true, flows are updated only if an agent wants to enter the link or an agent is added to buffer. Default is true. -->
		<param name="usingFastCapacityUpdate" value="true" />
		<!-- Defines what happens if an agent wants to depart, but the specified vehicle is not available. One of: teleport wait exception  -->
		<param name="vehicleBehavior" value="teleport" />
		<!-- If vehicles should all be the same default vehicle, or come from the vehicles file, or something else.  Possible values:  defaultVehicle modeVehicleTypesFromVehiclesData fromVehiclesData -->
		<param name="vehiclesSource" value="defaultVehicle" />
	</module>
	<module name="strategy" >
		<!-- the external executable will be called with a config file as argument.  This is the pathname to a possible skeleton config, to which additional information will be added.  Can be null. -->
		<param name="ExternalExeConfigTemplate" value="null" />
		<!-- time out value (in seconds) after which matsim will consider the external strategy as failed -->
		<param name="ExternalExeTimeOut" value="3600" />
		<!-- root directory for temporary files generated by the external executable. Provided as a service; I don't think this is used by MATSim. -->
		<param name="ExternalExeTmpFileRootDir" value="null" />
		<!-- fraction of iterations where innovative strategies are switched off.  Something like 0.8 should be good.  E.g. if you run from iteration 400 to iteration 500, innovation is switched off at iteration 480 -->
		<param name="fractionOfIterationsToDisableInnovation" value="Infinity" />
		<!-- maximum number of plans per agent.  ``0'' means ``infinity''.  Currently (2010), ``5'' is a good number -->
		<param name="maxAgentPlanMemorySize" value="6" />
		<!-- strategyName of PlanSelector for plans removal.  Possible defaults: WorstPlanSelector SelectRandom SelectExpBetaForRemoval ChangeExpBetaForRemoval PathSizeLogitSelectorForRemoval . The current default, WorstPlanSelector is not a good choice from a discrete choice theoretical perspective. Alternatives, however, have not been systematically tested. kai, feb'12 -->
		<param name="planSelectorForRemoval" value="WorstPlanSelector" />
		<parameterset type="strategysettings" >
			<!-- iteration after which strategy will be disabled.  most useful for ``innovative'' strategies (new routes, new times, ...). Normally, better use fractionOfIterationsToDisableInnovation -->
			<param name="disableAfterIteration" value="-1" />
			<!-- path to external executable (if applicable) -->
			<param name="executionPath" value="null" />
			<!-- strategyName of strategy.  Possible default names: SelectRandom BestScore KeepLastSelected ChangeExpBeta SelectExpBeta SelectPathSizeLogit      (selectors), ReRouteTimeAllocationMutatorTimeAllocationMutator_ReRouteChangeSingleTripModeChangeTripModeSubtourModeChoice (innovative strategies). -->
			<param name="strategyName" value="ChangeExpBeta" />
			<!-- subpopulation to which the strategy applies. "null" refers to the default population, that is, the set of persons for which no explicit subpopulation is defined (ie no subpopulation attribute) -->
			<param name="subpopulation" value="null" />
			<!-- weight of a strategy: for each agent, a strategy will be selected with a probability proportional to its weight -->
			<param name="weight" value="0.7" />
		</parameterset>
		<parameterset type="strategysettings" >
			<param name="disableAfterIteration" value="2900" />
			<param name="executionPath" value="null" />
			<param name="strategyName" value="ReRoute" />
			<param name="subpopulation" value="null" />
			<param name="weight" value="0.01" />
		</parameterset>
		<parameterset type="strategysettings" >
			<param name="disableAfterIteration" value="2900" />
			<param name="executionPath" value="null" />
			<param name="strategyName" value="SubtourModeChoice" />
			<param name="subpopulation" value="null" />
			<param name="weight" value="0.01" />
		</parameterset>
		<parameterset type="strategysettings" >
			<param name="disableAfterIteration" value="2900" />
			<param name="executionPath" value="null" />
			<param name="strategyName" value="TimeAllocationMutator" />
			<param name="subpopulation" value="null" />
			<param name="weight" value="0.01" />
		</parameterset>
		<parameterset type="strategysettings" >
			<param name="disableAfterIteration" value="150" />
			<param name="executionPath" value="null" />
			<param name="strategyName" value="ChangeExpBeta" />
			<param name="subpopulation" value="null" />
			<param name="weight" value="0.7" />
		</parameterset>
		<parameterset type="strategysettings" >
			<param name="disableAfterIteration" value="-1" />
			<param name="executionPath" value="null" />
			<param name="strategyName" value="SubtourModeChoice" />
			<param name="subpopulation" value="null" />
			<param name="weight" value="0.1" />
		</parameterset>
		<parameterset type="strategysettings" >
			<param name="disableAfterIteration" value="-1" />
			<param name="executionPath" value="null" />
			<param name="strategyName" value="ReRoute" />
			<param name="subpopulation" value="null" />
			<param name="weight" value="0.1" />
		</parameterset>
		<parameterset type="strategysettings" >
			<param name="disableAfterIteration" value="-1" />
			<param name="executionPath" value="null" />
			<param name="strategyName" value="TimeAllocationMutator" />
			<param name="subpopulation" value="null" />
			<param name="weight" value="0.1" />
		</parameterset>
	</module>
	<module name="subtourModeChoice" >
		<!-- Only for backwards compatibility.  Defines if only trips from modes list should change mode, or all trips.  Options: fromAllModesToSpecifiedModes fromSpecifiedModesToSpecifiedModes betweenAllAndFewerConstraints  -->
		<param name="behavior" value="fromSpecifiedModesToSpecifiedModes" />
		<!-- Defines the chain-based modes, seperated by commas -->
		<param name="chainBasedModes" value="car" />
		<!-- Defines whether car availability must be considered or not. A agent has no car only if it has no license, or never access to a car -->
		<param name="considerCarAvailability" value="true" />
		<!-- If greater than 0, subtours will also consider coordinates to be at the same location when smaller than set distance. -->
		<param name="coordDistance" value="0.0" />
		<!-- Defines all the modes available, including chain-based modes, seperated by commas -->
		<param name="modes" value="car,pt,walk" />
		<!-- Defines the probability of changing a single trip for a unchained mode instead of subtour. -->
		<param name="probaForRandomSingleTripMode" value="0.0" />
	</module>
	<module name="swissRailRaptor" >
		<!-- Sets whether intermodal access and egress modes are selected by least cost (default) or randomly chosen out of the available access / egress modes. -->
		<param name="intermodalAccessEgressModeSelection" value="CalcLeastCostModePerStop" />
		<!-- Possible values: Default,Individual -->
		<param name="scoringParameters" value="Default" />
		<param name="transferPenaltyBaseCost" value="0.0" />
		<param name="transferPenaltyCostPerTravelTimeHour" value="0.0" />
		<param name="transferPenaltyMaxCost" value="Infinity" />
		<param name="transferPenaltyMinCost" value="-Infinity" />
		<!-- time deducted from transfer walk leg during transfers between pt legs in order to avoid missing a vehicle by a few seconds due to delays. -->
		<param name="transferWalkMargin" value="5.0" />
		<!-- If true, SwissRailRaptor tries to detect when agents cannot board a vehicle in the previous iteration because it is already full and tries to find an alternative route instead. -->
		<param name="useCapacityConstraints" value="false" />
		<param name="useIntermodalAccessEgress" value="false" />
		<param name="useModeMappingForPassengers" value="false" />
		<param name="useRangeQuery" value="false" />
	</module>
	<module name="transit" >
		<!-- The Coordinates Reference System in which the coordinates are expressed in the input file. At import, the coordinates will be converted to the coordinate system defined in "global", and willbe converted back at export. If not specified, no conversion happens. -->
		<param name="inputScheduleCRS" value="null" />
		<param name="insistingOnUsingDeprecatedAttributeFiles" value="false" />
		<!-- The type of transit routing algorithm used, may have the values: [DijkstraBased, SwissRailRaptor] -->
		<param name="routingAlgorithmType" value="SwissRailRaptor" />
		<!-- Optional input file containing additional attributes for transit lines, stored as ObjectAttributes. -->
		<param name="transitLinesAttributesFile" value="null" />
		<!-- Comma-separated list of transportation modes that are handled as transit. Defaults to 'pt'. -->
		<param name="transitModes" value="pt,bus" />
		<!-- Input file containing the transit schedule to be simulated. -->
		<param name="transitScheduleFile" value="siouxfalls-2014/Siouxfalls_transitSchedule.xml" />
		<!-- Optional input file containing additional attributes for transit stop facilities, stored as ObjectAttributes. -->
		<param name="transitStopsAttributesFile" value="null" />
		<!-- Set this parameter to true if transit should be simulated, false if not. -->
		<param name="useTransit" value="true" />
		<param name="usingTransitInMobsim" value="true" />
		<!-- Input file containing the vehicles used by the departures in the transit schedule. -->
		<param name="vehiclesFile" value="siouxfalls-2014/Siouxfalls_vehicles.xml" />
	</module>
	<module name="transitRouter" >
		<!-- additional time the router allocates when a line switch happens. Can be interpreted as a 'safety' time that agents need to safely transfer from one line to another -->
		<param name="additionalTransferTime" value="0.0" />
		<!-- Factor with which direct walk generalized cost is multiplied before it is compared to the pt generalized cost.  Set to a very high value to reduce direct walk results. -->
		<param name="directWalkFactor" value="1.0" />
		<!-- step size to increase searchRadius if no stops are found -->
		<param name="extensionRadius" value="500.0" />
		<!-- maximum beeline distance between stops that agents could transfer to by walking -->
		<param name="maxBeelineWalkConnectionDistance" value="300.0" />
		<!-- the radius in which stop locations are searched, given a start or target coordinate -->
		<param name="searchRadius" value="1500.0" />
	</module>
	<module name="travelTimeCalculator" >
		<!-- (only for backwards compatibility; only used if separateModes==false && + filterModes==true)  Transport modes that will be respected by the travel time collector. 'car' is default which includes also buses from the pt simulation module. -->
		<param name="analyzedModes" value="car" />
		<param name="calculateLinkToLinkTravelTimes" value="false" />
		<param name="calculateLinkTravelTimes" value="true" />
		<!-- (only for backwards compatiblity; only used if separateModes==false)  Only modes included in analyzedModes are included. -->
		<param name="filterModes" value="false" />
		<!-- The lenght (in sec) of the time period that is splited into time bins; an additional time bin is created to aggregate all travel times collected after maxTime -->
		<param name="maxTime" value="108000" />
		<!-- (only for backwards compatibility) If false, link travel times are measured and aggregated over all vehicles using the link. -->
		<param name="separateModes" value="true" />
		<!-- How to deal with congested time bins that have no link entry events. `optimistic' assumes free speed (too optimistic); 'experimental_LastMile' is experimental and probably too pessimistic. -->
		<param name="travelTimeAggregator" value="optimistic" />
		<!-- The size of the time bin (in sec) into which the link travel times are aggregated for the router -->
		<param name="travelTimeBinSize" value="900" />
		<!-- possible values: TravelTimeCalculatorArray TravelTimeCalculatorHashMap  -->
		<param name="travelTimeCalculator" value="TravelTimeCalculatorArray" />
		<!-- How to deal with link entry times at different positions during the time bin. Currently supported: average, linearinterpolation -->
		<param name="travelTimeGetter" value="average" />
	</module>
	<module name="vehicles" >
		<param name="vehiclesFile" value="null" />
	</module>
	<module name="vspExperimental" >
		<!-- (do not use except of you have to) There was a problem with pt interaction scoring.  Some people solved it by overwriting the parameters of the pt interaction activity type.  Doing this now throws an Exception.  If you still insist on doing this, set the following to true. -->
		<param name="isAbleToOverwritePtInteractionParams" value="false" />
		<param name="isGeneratingBoardingDeniedEvent" value="false" />
		<!-- if an approximation of the opportunity cost of time is included into the radius calculation for location choice.`true' will be faster, but it is an approximation.  Default is `true'; `false' is available for backwards compatibility. -->
		<param name="isUsingOpportunityCostOfTimeForLocationChoice" value="true" />
		<param name="logitScaleParamForPlansRemoval" value="1.0" />
		<!-- Options: | ignore | info | warn | abort | .  When violating VSP defaults, this results in nothing, logfile infos, logfile warnings, or aborts.  Members of VSP should use `abort' or talk to kai. -->
		<param name="vspDefaultsCheckingLevel" value="ignore" />
		<!-- if true then writes output_events in output directory.  default is `false'. Will only work when lastIteration is multiple of events writing interval -->
		<param name="writingOutputEvents" value="true" />
	</module>

</config>

2023-08-21T15:19:46,404  INFO ControlerUtils:85 Complete config dump done.
2023-08-21T15:19:46,404  INFO ControlerUtils:86 Checking consistency of config...
2023-08-21T15:19:46,404  INFO VspConfigConsistencyCheckerImpl:64 NOT running vsp config consistency check because vsp defaults checking level is set to IGNORE
2023-08-21T15:19:46,409  INFO ControlerUtils:88 Checking consistency of config done.
2023-08-21T15:19:46,409  INFO PrepareForSimImpl:122 Network seems to be multimodal. Create car-only network which is handed over to PersonPrepareForSim.
2023-08-21T15:19:46,411  INFO NetworkImpl:165  node # 1
2023-08-21T15:19:46,411  INFO NetworkImpl:165  node # 4
2023-08-21T15:19:46,411  INFO NetworkImpl:165  node # 16
2023-08-21T15:19:46,412  INFO NetworkImpl:165  node # 64
2023-08-21T15:19:46,412  INFO NetworkImpl:165  node # 256
2023-08-21T15:19:46,413  INFO NetworkImpl:161  link # 1
2023-08-21T15:19:46,413  INFO NetworkImpl:161  link # 4
2023-08-21T15:19:46,413  INFO NetworkImpl:161  link # 16
2023-08-21T15:19:46,413  INFO NetworkImpl:161  link # 64
2023-08-21T15:19:46,415  INFO NetworkImpl:161  link # 256
2023-08-21T15:19:46,416  WARN XY2LinksForFacilities:51 There is no link for at least a facility. Assigning links for such facilities from coords.
2023-08-21T15:19:46,416  WARN XY2LinksForFacilities:52  This message given only once.
2023-08-21T15:19:46,417  INFO NetworkImpl:419 building QuadTree for nodes: xrange(679321.0322181903,686286.9268926464); yrange(4820338.810996656,4831237.176461053)
2023-08-21T15:19:46,419  INFO NetworkImpl:428 Building QuadTree took 0.003 seconds.
2023-08-21T15:19:46,469  WARN PrepareForSimImpl:229 'usePersonIdForMissingVehicleId' is deprecated. It will be removed soon.
2023-08-21T15:19:46,470  INFO Counter:70 [VehiclesImpl] added vehicle # 1
2023-08-21T15:19:46,470  INFO Counter:70 [VehiclesImpl] added vehicle # 2
2023-08-21T15:19:46,470  INFO Counter:70 [VehiclesImpl] added vehicle # 4
2023-08-21T15:19:46,470  INFO Counter:70 [VehiclesImpl] added vehicle # 8
2023-08-21T15:19:46,470  INFO Counter:70 [VehiclesImpl] added vehicle # 16
2023-08-21T15:19:46,470  INFO Counter:70 [VehiclesImpl] added vehicle # 32
2023-08-21T15:19:46,470  INFO Counter:70 [VehiclesImpl] added vehicle # 64
2023-08-21T15:19:46,471  INFO Counter:70 [VehiclesImpl] added vehicle # 128
2023-08-21T15:19:46,471  INFO Counter:70 [VehiclesImpl] added vehicle # 256
2023-08-21T15:19:46,472  INFO Counter:70 [VehiclesImpl] added vehicle # 512
2023-08-21T15:19:46,474  INFO Counter:70 [VehiclesImpl] added vehicle # 1024
2023-08-21T15:19:46,477  INFO Counter:70 [VehiclesImpl] added vehicle # 2048
2023-08-21T15:19:46,480  INFO Counter:70 [VehiclesImpl] added vehicle # 4096
2023-08-21T15:19:46,485  INFO Counter:70 [VehiclesImpl] added vehicle # 8192
2023-08-21T15:19:46,497  INFO Counter:70 [VehiclesImpl] added vehicle # 16384
2023-08-21T15:19:46,543  INFO Counter:70 [VehiclesImpl] added vehicle # 32768
2023-08-21T15:19:46,580  INFO Counter:70 [VehiclesImpl] added vehicle # 65536
2023-08-21T15:19:46,698  INFO EventsManagerImpl:138 adding Event-Handler: ch.sbb.matsim.routing.pt.raptor.SwissRailRaptorFactory$$Lambda$275/0x0000000800fa6640
2023-08-21T15:19:46,699  INFO EventsManagerImpl:144   org.matsim.pt.router.TransitScheduleChangedEventHandler
2023-08-21T15:19:46,699  INFO EventsManagerImpl:205     > org.matsim.pt.router.TransitScheduleChangedEvent
2023-08-21T15:19:46,699  INFO EventsManagerImpl:154 
2023-08-21T15:19:46,699  INFO EventsManagerImpl:138 adding Event-Handler: ch.sbb.matsim.routing.pt.raptor.SwissRailRaptorFactory$$Lambda$275/0x0000000800fa6640
2023-08-21T15:19:46,699  INFO EventsManagerImpl:144   org.matsim.pt.router.TransitScheduleChangedEventHandler
2023-08-21T15:19:46,699  INFO EventsManagerImpl:205     > org.matsim.pt.router.TransitScheduleChangedEvent
2023-08-21T15:19:46,699  INFO EventsManagerImpl:154 
2023-08-21T15:19:46,699  INFO SwissRailRaptorData:85 Preparing data for SwissRailRaptor...
2023-08-21T15:19:46,711  INFO SwissRailRaptorData:212 SwissRailRaptor data preparation done. Took 0 seconds.
2023-08-21T15:19:46,711  INFO SwissRailRaptorData:213 SwissRailRaptor statistics:  #routes = 10
2023-08-21T15:19:46,711  INFO SwissRailRaptorData:214 SwissRailRaptor statistics:  #departures = 2040
2023-08-21T15:19:46,711  INFO SwissRailRaptorData:215 SwissRailRaptor statistics:  #routeStops = 141
2023-08-21T15:19:46,711  INFO SwissRailRaptorData:216 SwissRailRaptor statistics:  #stopFacilities = 133
2023-08-21T15:19:46,711  INFO SwissRailRaptorData:217 SwissRailRaptor statistics:  #transfers (between routeStops) = 37
2023-08-21T15:19:46,713  INFO NetworkImpl:165  node # 1
2023-08-21T15:19:46,713  INFO NetworkImpl:165  node # 4
2023-08-21T15:19:46,713  INFO NetworkImpl:165  node # 16
2023-08-21T15:19:46,714  INFO NetworkImpl:165  node # 64
2023-08-21T15:19:46,714  INFO NetworkImpl:165  node # 256
2023-08-21T15:19:46,714  INFO NetworkImpl:161  link # 1
2023-08-21T15:19:46,714  INFO NetworkImpl:161  link # 4
2023-08-21T15:19:46,715  INFO NetworkImpl:161  link # 16
2023-08-21T15:19:46,715  INFO NetworkImpl:161  link # 64
2023-08-21T15:19:46,716  INFO NetworkImpl:161  link # 256
2023-08-21T15:19:46,717  INFO RandomizingTimeDistanceTravelDisutilityFactory:86  sigma: 3.0; resulting normalization: 0.011108996538242306
2023-08-21T15:19:46,720  INFO RandomizingTimeDistanceTravelDisutilityFactory:86  sigma: 3.0; resulting normalization: 0.011108996538242306
2023-08-21T15:19:46,720  INFO RandomizingTimeDistanceTravelDisutilityFactory:86  sigma: 3.0; resulting normalization: 0.011108996538242306
2023-08-21T15:19:46,721  INFO RandomizingTimeDistanceTravelDisutilityFactory:86  sigma: 3.0; resulting normalization: 0.011108996538242306
2023-08-21T15:19:46,721  INFO RandomizingTimeDistanceTravelDisutilityFactory:86  sigma: 3.0; resulting normalization: 0.011108996538242306
2023-08-21T15:19:46,721  INFO RandomizingTimeDistanceTravelDisutilityFactory:86  sigma: 3.0; resulting normalization: 0.011108996538242306
2023-08-21T15:19:46,722  INFO RandomizingTimeDistanceTravelDisutilityFactory:86  sigma: 3.0; resulting normalization: 0.011108996538242306
2023-08-21T15:19:46,722  INFO RandomizingTimeDistanceTravelDisutilityFactory:86  sigma: 3.0; resulting normalization: 0.011108996538242306
2023-08-21T15:19:46,723  INFO RandomizingTimeDistanceTravelDisutilityFactory:86  sigma: 3.0; resulting normalization: 0.011108996538242306
2023-08-21T15:19:46,723  INFO RandomizingTimeDistanceTravelDisutilityFactory:86  sigma: 3.0; resulting normalization: 0.011108996538242306
2023-08-21T15:19:46,752  INFO Counter:70 [PersonPrepareForSim] handled person # 1
2023-08-21T15:19:46,763  INFO Counter:70 [PersonPrepareForSim] handled person # 2
2023-08-21T15:19:46,768  INFO Counter:70 [PersonPrepareForSim] handled person # 8
2023-08-21T15:19:46,771  INFO Counter:70 [PersonPrepareForSim] handled person # 16
2023-08-21T15:19:46,775  INFO Counter:70 [PersonPrepareForSim] handled person # 32
2023-08-21T15:19:46,784  INFO Counter:70 [PersonPrepareForSim] handled person # 64
2023-08-21T15:19:46,765  INFO Counter:70 [PersonPrepareForSim] handled person # 4
2023-08-21T15:19:46,798  INFO Counter:70 [PersonPrepareForSim] handled person # 128
2023-08-21T15:19:46,814  INFO Counter:70 [PersonPrepareForSim] handled person # 256
2023-08-21T15:19:46,833  INFO Counter:70 [PersonPrepareForSim] handled person # 512
2023-08-21T15:19:46,869  INFO Counter:70 [PersonPrepareForSim] handled person # 1024
2023-08-21T15:19:46,925  INFO Counter:70 [PersonPrepareForSim] handled person # 2048
2023-08-21T15:19:47,028  INFO Counter:70 [PersonPrepareForSim] handled person # 4096
2023-08-21T15:19:47,202  INFO Counter:70 [PersonPrepareForSim] handled person # 8192
2023-08-21T15:19:47,539  INFO Counter:70 [PersonPrepareForSim] handled person # 16384
2023-08-21T15:19:48,127  INFO Counter:70 [PersonPrepareForSim] handled person # 32768
2023-08-21T15:19:49,145  INFO Counter:70 [PersonPrepareForSim] handled person # 65536
2023-08-21T15:19:49,754  INFO Counter:75 [PersonPrepareForSim] handled person # 84110
2023-08-21T15:19:49,771  INFO AbstractController:134 ###################################################
2023-08-21T15:19:49,771  INFO AbstractController:135 ### ITERATION 0 BEGINS
2023-08-21T15:19:49,771  INFO ControlerListenerManagerImpl:146 calling notifyIterationStarts on org.matsim.analysis.LegHistogramListener
2023-08-21T15:19:49,771  INFO ControlerListenerManagerImpl:146 calling notifyIterationStarts on org.matsim.analysis.LinkStatsControlerListener
2023-08-21T15:19:49,771  INFO ControlerListenerManagerImpl:146 calling notifyIterationStarts on org.matsim.core.replanning.ReplanningContextImpl
2023-08-21T15:19:49,771  INFO ControlerListenerManagerImpl:146 calling notifyIterationStarts on org.matsim.core.scoring.ScoringFunctionsForPopulation$$Lambda$241/0x0000000800f78d20
2023-08-21T15:19:49,834  INFO ControlerListenerManagerImpl:146 calling notifyIterationStarts on org.matsim.core.scoring.ExperiencedPlansServiceImpl$1
2023-08-21T15:19:49,851  INFO ControlerListenerManagerImpl:149 [it.0] all ControlerIterationStartsListeners called.
2023-08-21T15:19:49,851  INFO ControlerListenerManagerImpl:225 calling notifyBeforeMobsim on org.matsim.core.controler.corelisteners.EventsHandlingImpl
2023-08-21T15:19:49,851  INFO EventsManagerImpl:168 resetting Event-Handlers
2023-08-21T15:19:49,851  INFO EventsManagerImpl:175   org.matsim.core.trafficmonitoring.TravelTimeCalculator
2023-08-21T15:19:49,852  INFO EventsManagerImpl:175   org.matsim.analysis.VolumesAnalyzer
2023-08-21T15:19:49,852  INFO EventsManagerImpl:175   org.matsim.core.scoring.ScoringFunctionsForPopulation
2023-08-21T15:19:49,852  INFO EventsManagerImpl:175   org.matsim.analysis.LegHistogram
2023-08-21T15:19:49,852  INFO EventsManagerImpl:175   org.matsim.analysis.CalcLegTimes
2023-08-21T15:19:49,852  INFO EventsManagerImpl:175   ch.sbb.matsim.routing.pt.raptor.SwissRailRaptorFactory$$Lambda$275/0x0000000800fa6640
2023-08-21T15:19:49,853  INFO EventsManagerImpl:138 adding Event-Handler: org.matsim.core.events.algorithms.EventWriterXML
2023-08-21T15:19:49,853  INFO EventsManagerImpl:144   org.matsim.core.events.algorithms.EventWriter
2023-08-21T15:19:49,854  INFO EventsManagerImpl:144   org.matsim.core.events.handler.BasicEventHandler
2023-08-21T15:19:49,854  INFO EventsManagerImpl:205     > org.matsim.api.core.v01.events.Event
2023-08-21T15:19:49,854  INFO EventsManagerImpl:154 
2023-08-21T15:19:49,854  INFO EventsManagerImpl:138 adding Event-Handler: org.matsim.core.events.algorithms.EventWriterXML
2023-08-21T15:19:49,854  INFO EventsManagerImpl:144   org.matsim.core.events.algorithms.EventWriter
2023-08-21T15:19:49,854  INFO EventsManagerImpl:144   org.matsim.core.events.handler.BasicEventHandler
2023-08-21T15:19:49,854  INFO EventsManagerImpl:205     > org.matsim.api.core.v01.events.Event
2023-08-21T15:19:49,854  INFO EventsManagerImpl:154 
2023-08-21T15:19:49,854  INFO ControlerListenerManagerImpl:225 calling notifyBeforeMobsim on org.matsim.core.controler.corelisteners.PlansDumpingImpl
2023-08-21T15:19:49,854  INFO PlansDumpingImpl:77 dumping plans...
2023-08-21T15:19:49,901  INFO Counter:70 [PopulationWriter] dumped person # 1
2023-08-21T15:19:49,901  INFO Counter:70 [PopulationWriter] dumped person # 2
2023-08-21T15:19:49,901  INFO Counter:70 [PopulationWriter] dumped person # 4
2023-08-21T15:19:49,902  INFO Counter:70 [PopulationWriter] dumped person # 8
2023-08-21T15:19:49,918  INFO Counter:70 [PopulationWriter] dumped person # 16
2023-08-21T15:19:49,921  INFO Counter:70 [PopulationWriter] dumped person # 32
2023-08-21T15:19:49,925  INFO Counter:70 [PopulationWriter] dumped person # 64
2023-08-21T15:19:49,932  INFO Counter:70 [PopulationWriter] dumped person # 128
2023-08-21T15:19:49,942  INFO Counter:70 [PopulationWriter] dumped person # 256
2023-08-21T15:19:49,959  INFO Counter:70 [PopulationWriter] dumped person # 512
2023-08-21T15:19:49,985  INFO Counter:70 [PopulationWriter] dumped person # 1024
2023-08-21T15:19:50,033  INFO Counter:70 [PopulationWriter] dumped person # 2048
2023-08-21T15:19:50,119  INFO Counter:70 [PopulationWriter] dumped person # 4096
2023-08-21T15:19:50,276  INFO Counter:70 [PopulationWriter] dumped person # 8192
2023-08-21T15:19:50,591  INFO Counter:70 [PopulationWriter] dumped person # 16384
2023-08-21T15:19:51,293  INFO Counter:70 [PopulationWriter] dumped person # 32768
2023-08-21T15:19:52,519  INFO Counter:70 [PopulationWriter] dumped person # 65536
2023-08-21T15:19:53,231  INFO PopulationWriter:145 Population written to: output_2/ITERS/it.0/run0.0.plans.xml.gz
2023-08-21T15:19:53,233  INFO Counter:75 [PopulationWriter] dumped person # 84110
2023-08-21T15:19:53,233  INFO PlansDumpingImpl:94 finished plans dump.
2023-08-21T15:19:53,233  INFO ControlerListenerManagerImpl:230 calling notifyBeforeMobsim on org.matsim.core.population.VspPlansCleaner
2023-08-21T15:19:53,262  INFO ControlerListenerManagerImpl:233 [it.0] all ControlerBeforeMobsimListeners called.
2023-08-21T15:19:53,262  INFO PrepareForMobsimImpl:87 Network seems to be multimodal. Create car-only network which is handed over to PersonPrepareForSim.
2023-08-21T15:19:53,262  INFO NetworkImpl:165  node # 1
2023-08-21T15:19:53,262  INFO NetworkImpl:165  node # 4
2023-08-21T15:19:53,262  INFO NetworkImpl:165  node # 16
2023-08-21T15:19:53,262  INFO NetworkImpl:165  node # 64
2023-08-21T15:19:53,263  INFO NetworkImpl:165  node # 256
2023-08-21T15:19:53,263  INFO NetworkImpl:161  link # 1
2023-08-21T15:19:53,263  INFO NetworkImpl:161  link # 4
2023-08-21T15:19:53,263  INFO NetworkImpl:161  link # 16
2023-08-21T15:19:53,263  INFO NetworkImpl:161  link # 64
2023-08-21T15:19:53,263  INFO NetworkImpl:161  link # 256
2023-08-21T15:19:53,283  INFO Counter:70 [PersonPrepareForSim] handled person # 1
2023-08-21T15:19:53,283  INFO Counter:70 [PersonPrepareForSim] handled person # 16
2023-08-21T15:19:53,283  INFO Counter:70 [PersonPrepareForSim] handled person # 8
2023-08-21T15:19:53,283  INFO Counter:70 [PersonPrepareForSim] handled person # 32
2023-08-21T15:19:53,283  INFO Counter:70 [PersonPrepareForSim] handled person # 2
2023-08-21T15:19:53,283  INFO Counter:70 [PersonPrepareForSim] handled person # 4
2023-08-21T15:19:53,284  INFO Counter:70 [PersonPrepareForSim] handled person # 128
2023-08-21T15:19:53,283  INFO Counter:70 [PersonPrepareForSim] handled person # 64
2023-08-21T15:19:53,284  INFO Counter:70 [PersonPrepareForSim] handled person # 512
2023-08-21T15:19:53,285  INFO Counter:70 [PersonPrepareForSim] handled person # 1024
2023-08-21T15:19:53,284  INFO Counter:70 [PersonPrepareForSim] handled person # 256
2023-08-21T15:19:53,287  INFO Counter:70 [PersonPrepareForSim] handled person # 2048
2023-08-21T15:19:53,290  INFO Counter:70 [PersonPrepareForSim] handled person # 4096
2023-08-21T15:19:53,296  INFO Counter:70 [PersonPrepareForSim] handled person # 8192
2023-08-21T15:19:53,311  INFO Counter:70 [PersonPrepareForSim] handled person # 16384
2023-08-21T15:19:53,335  INFO Counter:70 [PersonPrepareForSim] handled person # 32768
2023-08-21T15:19:53,369  INFO Counter:70 [PersonPrepareForSim] handled person # 65536
2023-08-21T15:19:53,381  INFO Counter:75 [PersonPrepareForSim] handled person # 84110
2023-08-21T15:19:53,408  INFO MobsimListenerManager:50 calling addQueueSimulationListener
2023-08-21T15:19:53,409  INFO MobsimListenerManager:54   assigned class org.matsim.core.mobsim.framework.listeners.MobsimListener to interface org.matsim.vis.snapshotwriters.SnapshotWriterManager
2023-08-21T15:19:53,409  INFO MobsimListenerManager:54   assigned class org.matsim.core.mobsim.framework.listeners.MobsimListener to interface org.matsim.core.mobsim.framework.listeners.MobsimInitializedListener
2023-08-21T15:19:53,409  INFO MobsimListenerManager:54   assigned class org.matsim.core.mobsim.framework.listeners.MobsimListener to interface org.matsim.core.mobsim.framework.listeners.MobsimBeforeCleanupListener
2023-08-21T15:19:53,409  INFO MobsimListenerManager:54   assigned class org.matsim.core.mobsim.framework.listeners.MobsimListener to interface org.matsim.core.mobsim.framework.listeners.MobsimAfterSimStepListener
2023-08-21T15:19:53,409  INFO MobsimListenerManager:54   assigned class org.matsim.core.mobsim.framework.listeners.MobsimListener to interface org.matsim.core.mobsim.framework.listeners.MobsimListener
2023-08-21T15:19:53,420  INFO QSimProvider:131 Added MobsimEngine class org.matsim.core.mobsim.qsim.ActivityEngineDefaultImpl
2023-08-21T15:19:53,420  INFO QSimProvider:137 Added Activityhandler class org.matsim.core.mobsim.qsim.ActivityEngineDefaultImpl
2023-08-21T15:19:53,420  INFO QSimProvider:143 Added DepartureHandler class org.matsim.core.mobsim.qsim.qnetsimengine.VehicularDepartureHandler
2023-08-21T15:19:53,420  INFO QSimProvider:131 Added MobsimEngine class org.matsim.core.mobsim.qsim.qnetsimengine.QNetsimEngineWithThreadpool
2023-08-21T15:19:53,420  INFO QSimProvider:131 Added MobsimEngine class org.matsim.core.mobsim.qsim.DefaultTeleportationEngine
2023-08-21T15:19:53,420  INFO QSimProvider:143 Added DepartureHandler class org.matsim.core.mobsim.qsim.DefaultTeleportationEngine
2023-08-21T15:19:53,420  INFO QSimProvider:149 Added AgentSource class org.matsim.core.mobsim.qsim.agents.PopulationAgentSource
2023-08-21T15:19:53,420  INFO MobsimListenerManager:50 calling addQueueSimulationListener
2023-08-21T15:19:53,420  INFO MobsimListenerManager:54   assigned class org.matsim.core.mobsim.framework.listeners.MobsimListener to interface org.matsim.core.mobsim.framework.listeners.MobsimBeforeSimStepListener
2023-08-21T15:19:53,420  INFO MobsimListenerManager:54   assigned class org.matsim.core.mobsim.framework.listeners.MobsimListener to interface org.matsim.core.mobsim.qsim.messagequeueengine.MessageQueueEngine
2023-08-21T15:19:53,420  INFO MobsimListenerManager:54   assigned class org.matsim.core.mobsim.framework.listeners.MobsimListener to interface org.matsim.core.mobsim.framework.listeners.MobsimListener
2023-08-21T15:19:53,420  INFO QSimProvider:155 Added MobsimListener class org.matsim.core.mobsim.qsim.messagequeueengine.MessageQueueEngine
2023-08-21T15:19:53,421  INFO QSimProvider:131 Added MobsimEngine class org.matsim.core.mobsim.qsim.pt.TransitQSimEngine
2023-08-21T15:19:53,421  INFO QSimProvider:143 Added DepartureHandler class org.matsim.core.mobsim.qsim.pt.TransitQSimEngine
2023-08-21T15:19:53,421  INFO QSimProvider:149 Added AgentSource class org.matsim.core.mobsim.qsim.pt.TransitQSimEngine
2023-08-21T15:19:53,423  INFO PopulationUtils:1202 adding scenario element for allpersons container
2023-08-21T15:19:53,424  INFO PopulationImpl:107  person # 1
2023-08-21T15:19:53,424  INFO PopulationImpl:107  person # 4
2023-08-21T15:19:53,424  INFO PopulationImpl:107  person # 16
2023-08-21T15:19:53,424  INFO PopulationImpl:107  person # 64
2023-08-21T15:19:53,425  INFO PopulationImpl:107  person # 256
2023-08-21T15:19:53,427  INFO PopulationImpl:107  person # 1024
2023-08-21T15:19:53,430  INFO PopulationImpl:107  person # 4096
2023-08-21T15:19:53,440  INFO PopulationImpl:107  person # 16384
2023-08-21T15:19:53,472  INFO PopulationImpl:107  person # 65536
2023-08-21T15:19:53,481  INFO VehicleUtils:328 adding scenario element for allvehicles container
2023-08-21T15:19:53,481  INFO Counter:70 [VehiclesImpl] added vehicle # 1
2023-08-21T15:19:53,481  INFO Counter:70 [VehiclesImpl] added vehicle # 2
2023-08-21T15:19:53,482  INFO Counter:70 [VehiclesImpl] added vehicle # 4
2023-08-21T15:19:53,482  INFO Counter:70 [VehiclesImpl] added vehicle # 8
2023-08-21T15:19:53,482  INFO Counter:70 [VehiclesImpl] added vehicle # 16
2023-08-21T15:19:53,482  INFO Counter:70 [VehiclesImpl] added vehicle # 32
2023-08-21T15:19:53,482  INFO Counter:70 [VehiclesImpl] added vehicle # 64
2023-08-21T15:19:53,482  INFO Counter:70 [VehiclesImpl] added vehicle # 128
2023-08-21T15:19:53,483  INFO Counter:70 [VehiclesImpl] added vehicle # 256
2023-08-21T15:19:53,484  INFO Counter:70 [VehiclesImpl] added vehicle # 512
2023-08-21T15:19:53,486  INFO Counter:70 [VehiclesImpl] added vehicle # 1024
2023-08-21T15:19:53,488  INFO Counter:70 [VehiclesImpl] added vehicle # 2048
2023-08-21T15:19:53,490  INFO Counter:70 [VehiclesImpl] added vehicle # 4096
2023-08-21T15:19:53,494  INFO Counter:70 [VehiclesImpl] added vehicle # 8192
2023-08-21T15:19:53,502  INFO Counter:70 [VehiclesImpl] added vehicle # 16384
2023-08-21T15:19:53,519  INFO Counter:70 [VehiclesImpl] added vehicle # 32768
2023-08-21T15:19:53,559  INFO Counter:70 [VehiclesImpl] added vehicle # 65536
2023-08-21T15:19:53,562  INFO ReconstructingUmlaufBuilder:133 Generating UmlaufStuecke ...
2023-08-21T15:19:53,563  INFO ReconstructingUmlaufBuilder:146 ... done generating UmlaufStuecke
2023-08-21T15:19:53,588  INFO AbstractQNetsimEngine:428 Assigned 8 nodes and 9 links to QSimEngineRunner #0
2023-08-21T15:19:53,588  INFO AbstractQNetsimEngine:428 Assigned 8 nodes and 17 links to QSimEngineRunner #1
2023-08-21T15:19:53,588  INFO AbstractQNetsimEngine:428 Assigned 7 nodes and 9 links to QSimEngineRunner #2
2023-08-21T15:19:53,588  INFO AbstractQNetsimEngine:428 Assigned 7 nodes and 7 links to QSimEngineRunner #3
2023-08-21T15:19:53,588  INFO AbstractQNetsimEngine:428 Assigned 7 nodes and 7 links to QSimEngineRunner #4
2023-08-21T15:19:53,588  INFO AbstractQNetsimEngine:428 Assigned 7 nodes and 7 links to QSimEngineRunner #5
2023-08-21T15:19:53,588  INFO AbstractQNetsimEngine:428 Assigned 7 nodes and 7 links to QSimEngineRunner #6
2023-08-21T15:19:53,588  INFO AbstractQNetsimEngine:428 Assigned 7 nodes and 8 links to QSimEngineRunner #7
2023-08-21T15:19:53,588  INFO AbstractQNetsimEngine:428 Assigned 7 nodes and 9 links to QSimEngineRunner #8
2023-08-21T15:19:53,588  INFO AbstractQNetsimEngine:428 Assigned 7 nodes and 7 links to QSimEngineRunner #9
2023-08-21T15:19:53,588  INFO AbstractQNetsimEngine:428 Assigned 7 nodes and 7 links to QSimEngineRunner #10
2023-08-21T15:19:53,588  INFO AbstractQNetsimEngine:428 Assigned 7 nodes and 9 links to QSimEngineRunner #11
2023-08-21T15:19:53,588  INFO AbstractQNetsimEngine:428 Assigned 7 nodes and 7 links to QSimEngineRunner #12
2023-08-21T15:19:53,588  INFO AbstractQNetsimEngine:428 Assigned 7 nodes and 7 links to QSimEngineRunner #13
2023-08-21T15:19:53,588  INFO AbstractQNetsimEngine:428 Assigned 7 nodes and 8 links to QSimEngineRunner #14
2023-08-21T15:19:53,588  INFO AbstractQNetsimEngine:428 Assigned 7 nodes and 13 links to QSimEngineRunner #15
2023-08-21T15:19:53,588  INFO AbstractQNetsimEngine:428 Assigned 7 nodes and 10 links to QSimEngineRunner #16
2023-08-21T15:19:53,588  INFO AbstractQNetsimEngine:428 Assigned 7 nodes and 9 links to QSimEngineRunner #17
2023-08-21T15:19:53,588  INFO AbstractQNetsimEngine:428 Assigned 7 nodes and 9 links to QSimEngineRunner #18
2023-08-21T15:19:53,588  INFO AbstractQNetsimEngine:428 Assigned 7 nodes and 9 links to QSimEngineRunner #19
2023-08-21T15:19:53,588  INFO AbstractQNetsimEngine:428 Assigned 7 nodes and 7 links to QSimEngineRunner #20
2023-08-21T15:19:53,589  INFO AbstractQNetsimEngine:428 Assigned 7 nodes and 10 links to QSimEngineRunner #21
2023-08-21T15:19:53,589  INFO AbstractQNetsimEngine:428 Assigned 7 nodes and 7 links to QSimEngineRunner #22
2023-08-21T15:19:53,589  INFO AbstractQNetsimEngine:428 Assigned 7 nodes and 7 links to QSimEngineRunner #23
2023-08-21T15:19:53,589  INFO AbstractQNetsimEngine:428 Assigned 7 nodes and 7 links to QSimEngineRunner #24
2023-08-21T15:19:53,589  INFO AbstractQNetsimEngine:428 Assigned 7 nodes and 7 links to QSimEngineRunner #25
2023-08-21T15:19:53,589  INFO AbstractQNetsimEngine:428 Assigned 7 nodes and 10 links to QSimEngineRunner #26
2023-08-21T15:19:53,589  INFO AbstractQNetsimEngine:428 Assigned 7 nodes and 7 links to QSimEngineRunner #27
2023-08-21T15:19:53,589  INFO AbstractQNetsimEngine:428 Assigned 7 nodes and 9 links to QSimEngineRunner #28
2023-08-21T15:19:53,589  INFO AbstractQNetsimEngine:428 Assigned 7 nodes and 7 links to QSimEngineRunner #29
2023-08-21T15:19:53,589  INFO AbstractQNetsimEngine:428 Assigned 7 nodes and 9 links to QSimEngineRunner #30
2023-08-21T15:19:53,589  INFO AbstractQNetsimEngine:428 Assigned 7 nodes and 9 links to QSimEngineRunner #31
2023-08-21T15:19:53,589  INFO AbstractQNetsimEngine:428 Assigned 7 nodes and 9 links to QSimEngineRunner #32
2023-08-21T15:19:53,589  INFO AbstractQNetsimEngine:428 Assigned 7 nodes and 7 links to QSimEngineRunner #33
2023-08-21T15:19:53,589  INFO AbstractQNetsimEngine:428 Assigned 7 nodes and 9 links to QSimEngineRunner #34
2023-08-21T15:19:53,589  INFO AbstractQNetsimEngine:428 Assigned 7 nodes and 7 links to QSimEngineRunner #35
2023-08-21T15:19:53,589  INFO AbstractQNetsimEngine:428 Assigned 7 nodes and 7 links to QSimEngineRunner #36
2023-08-21T15:19:53,589  INFO AbstractQNetsimEngine:428 Assigned 7 nodes and 7 links to QSimEngineRunner #37
2023-08-21T15:19:53,589  INFO AbstractQNetsimEngine:428 Assigned 7 nodes and 10 links to QSimEngineRunner #38
2023-08-21T15:19:53,589  INFO AbstractQNetsimEngine:428 Assigned 7 nodes and 7 links to QSimEngineRunner #39
2023-08-21T15:19:53,645  INFO EventsManagerImpl:115  event # 1
2023-08-21T15:19:53,646  INFO EventsManagerImpl:115  event # 4
2023-08-21T15:19:53,646  INFO EventsManagerImpl:115  event # 16
2023-08-21T15:19:53,651  INFO AbstractQNetsimEngine:366 SIMULATION (QNetsimEngine) AT 06:00:00 : #links=0 #nodes=10
2023-08-21T15:19:53,653  INFO QSim:566 SIMULATION (NEW QSim) AT 06:00:00 : #Veh=86150 lost=0 simT=0.0s realT=0s; (s/r): 0.0
2023-08-21T15:19:53,654  INFO EventsManagerImpl:115  event # 64
2023-08-21T15:19:53,697  INFO EventsManagerImpl:115  event # 256
2023-08-21T15:19:53,753  INFO EventsManagerImpl:115  event # 1024
2023-08-21T15:19:53,901  INFO EventsManagerImpl:115  event # 4096
2023-08-21T15:19:54,096  INFO EventsManagerImpl:115  event # 16384
2023-08-21T15:19:54,193  INFO AbstractQNetsimEngine:366 SIMULATION (QNetsimEngine) AT 07:00:00 : #links=225 #nodes=48
2023-08-21T15:19:54,193  INFO QSim:566 SIMULATION (NEW QSim) AT 07:00:00 : #Veh=86043 lost=0 simT=3600.0s realT=0s; (s/r): Infinity
2023-08-21T15:19:54,331  INFO EventsManagerImpl:115  event # 65536
2023-08-21T15:19:54,996  INFO EventsManagerImpl:115  event # 262144
2023-08-21T15:19:56,719  INFO AbstractQNetsimEngine:366 SIMULATION (QNetsimEngine) AT 08:00:00 : #links=201 #nodes=131
2023-08-21T15:19:56,719  INFO QSim:566 SIMULATION (NEW QSim) AT 08:00:00 : #Veh=85996 lost=0 simT=7200.0s realT=3s; (s/r): 2400.0
2023-08-21T15:19:57,453  INFO AbstractQNetsimEngine:366 SIMULATION (QNetsimEngine) AT 09:00:00 : #links=160 #nodes=125
2023-08-21T15:19:57,453  INFO QSim:566 SIMULATION (NEW QSim) AT 09:00:00 : #Veh=85990 lost=0 simT=10800.0s realT=4s; (s/r): 2700.0
2023-08-21T15:19:58,054  INFO AbstractQNetsimEngine:366 SIMULATION (QNetsimEngine) AT 10:00:00 : #links=163 #nodes=123
2023-08-21T15:19:58,054  INFO QSim:566 SIMULATION (NEW QSim) AT 10:00:00 : #Veh=85945 lost=0 simT=14400.0s realT=4s; (s/r): 3600.0
2023-08-21T15:19:58,599  INFO AbstractQNetsimEngine:366 SIMULATION (QNetsimEngine) AT 11:00:00 : #links=170 #nodes=129
2023-08-21T15:19:58,599  INFO QSim:566 SIMULATION (NEW QSim) AT 11:00:00 : #Veh=85850 lost=0 simT=18000.0s realT=5s; (s/r): 3600.0
2023-08-21T15:19:59,167  INFO AbstractQNetsimEngine:366 SIMULATION (QNetsimEngine) AT 12:00:00 : #links=169 #nodes=128
2023-08-21T15:19:59,167  INFO QSim:566 SIMULATION (NEW QSim) AT 12:00:00 : #Veh=85768 lost=0 simT=21600.0s realT=5s; (s/r): 4320.0
2023-08-21T15:19:59,714  INFO AbstractQNetsimEngine:366 SIMULATION (QNetsimEngine) AT 13:00:00 : #links=170 #nodes=128
2023-08-21T15:19:59,714  INFO QSim:566 SIMULATION (NEW QSim) AT 13:00:00 : #Veh=85691 lost=0 simT=25200.0s realT=6s; (s/r): 4200.0
2023-08-21T15:20:00,265  INFO AbstractQNetsimEngine:366 SIMULATION (QNetsimEngine) AT 14:00:00 : #links=168 #nodes=129
2023-08-21T15:20:00,265  INFO QSim:566 SIMULATION (NEW QSim) AT 14:00:00 : #Veh=85606 lost=0 simT=28800.0s realT=6s; (s/r): 4800.0
2023-08-21T15:20:00,859  INFO AbstractQNetsimEngine:366 SIMULATION (QNetsimEngine) AT 15:00:00 : #links=172 #nodes=130
2023-08-21T15:20:00,859  INFO QSim:566 SIMULATION (NEW QSim) AT 15:00:00 : #Veh=85512 lost=0 simT=32400.0s realT=7s; (s/r): 4628.571428571428
2023-08-21T15:20:01,466  INFO AbstractQNetsimEngine:366 SIMULATION (QNetsimEngine) AT 16:00:00 : #links=178 #nodes=134
2023-08-21T15:20:01,466  INFO QSim:566 SIMULATION (NEW QSim) AT 16:00:00 : #Veh=85433 lost=0 simT=36000.0s realT=8s; (s/r): 4500.0
2023-08-21T15:20:02,028  INFO AbstractQNetsimEngine:366 SIMULATION (QNetsimEngine) AT 17:00:00 : #links=181 #nodes=135
2023-08-21T15:20:02,028  INFO QSim:566 SIMULATION (NEW QSim) AT 17:00:00 : #Veh=85351 lost=0 simT=39600.0s realT=8s; (s/r): 4950.0
2023-08-21T15:20:02,326  INFO EventsManagerImpl:115  event # 1048576
2023-08-21T15:20:02,843  INFO AbstractQNetsimEngine:366 SIMULATION (QNetsimEngine) AT 18:00:00 : #links=195 #nodes=151
2023-08-21T15:20:02,843  INFO QSim:566 SIMULATION (NEW QSim) AT 18:00:00 : #Veh=84542 lost=0 simT=43200.0s realT=9s; (s/r): 4800.0
2023-08-21T15:20:03,463  INFO AbstractQNetsimEngine:366 SIMULATION (QNetsimEngine) AT 19:00:00 : #links=196 #nodes=153
2023-08-21T15:20:03,463  INFO QSim:566 SIMULATION (NEW QSim) AT 19:00:00 : #Veh=83811 lost=0 simT=46800.0s realT=10s; (s/r): 4680.0
2023-08-21T15:20:04,050  INFO AbstractQNetsimEngine:366 SIMULATION (QNetsimEngine) AT 20:00:00 : #links=196 #nodes=154
2023-08-21T15:20:04,051  INFO QSim:566 SIMULATION (NEW QSim) AT 20:00:00 : #Veh=83689 lost=0 simT=50400.0s realT=10s; (s/r): 5040.0
2023-08-21T15:20:04,662  INFO AbstractQNetsimEngine:366 SIMULATION (QNetsimEngine) AT 21:00:00 : #links=196 #nodes=158
2023-08-21T15:20:04,662  INFO QSim:566 SIMULATION (NEW QSim) AT 21:00:00 : #Veh=83567 lost=0 simT=54000.0s realT=11s; (s/r): 4909.090909090909
2023-08-21T15:20:05,192  INFO AbstractQNetsimEngine:366 SIMULATION (QNetsimEngine) AT 22:00:00 : #links=194 #nodes=158
2023-08-21T15:20:05,192  INFO QSim:566 SIMULATION (NEW QSim) AT 22:00:00 : #Veh=83509 lost=0 simT=57600.0s realT=11s; (s/r): 5236.363636363636
2023-08-21T15:20:05,721  INFO AbstractQNetsimEngine:366 SIMULATION (QNetsimEngine) AT 23:00:00 : #links=195 #nodes=153
2023-08-21T15:20:05,721  INFO QSim:566 SIMULATION (NEW QSim) AT 23:00:00 : #Veh=83490 lost=0 simT=61200.0s realT=12s; (s/r): 5100.0
2023-08-21T15:20:06,244  INFO AbstractQNetsimEngine:366 SIMULATION (QNetsimEngine) AT 24:00:00 : #links=197 #nodes=155
2023-08-21T15:20:06,245  INFO QSim:566 SIMULATION (NEW QSim) AT 24:00:00 : #Veh=83488 lost=0 simT=64800.0s realT=12s; (s/r): 5400.0
2023-08-21T15:20:06,768  INFO AbstractQNetsimEngine:366 SIMULATION (QNetsimEngine) AT 25:00:00 : #links=195 #nodes=154
2023-08-21T15:20:06,768  INFO QSim:566 SIMULATION (NEW QSim) AT 25:00:00 : #Veh=83487 lost=0 simT=68400.0s realT=13s; (s/r): 5261.538461538462
2023-08-21T15:20:07,282  INFO AbstractQNetsimEngine:366 SIMULATION (QNetsimEngine) AT 26:00:00 : #links=197 #nodes=155
2023-08-21T15:20:07,282  INFO QSim:566 SIMULATION (NEW QSim) AT 26:00:00 : #Veh=83481 lost=0 simT=72000.0s realT=13s; (s/r): 5538.461538461538
2023-08-21T15:20:07,805  INFO AbstractQNetsimEngine:366 SIMULATION (QNetsimEngine) AT 27:00:00 : #links=195 #nodes=154
2023-08-21T15:20:07,805  INFO QSim:566 SIMULATION (NEW QSim) AT 27:00:00 : #Veh=83470 lost=0 simT=75600.0s realT=14s; (s/r): 5400.0
2023-08-21T15:20:08,333  INFO AbstractQNetsimEngine:366 SIMULATION (QNetsimEngine) AT 28:00:00 : #links=195 #nodes=154
2023-08-21T15:20:08,334  INFO QSim:566 SIMULATION (NEW QSim) AT 28:00:00 : #Veh=83457 lost=0 simT=79200.0s realT=14s; (s/r): 5657.142857142857
2023-08-21T15:20:08,858  INFO AbstractQNetsimEngine:366 SIMULATION (QNetsimEngine) AT 29:00:00 : #links=194 #nodes=153
2023-08-21T15:20:08,858  INFO QSim:566 SIMULATION (NEW QSim) AT 29:00:00 : #Veh=83439 lost=0 simT=82800.0s realT=15s; (s/r): 5520.0
2023-08-21T15:20:09,380  INFO AbstractQNetsimEngine:366 SIMULATION (QNetsimEngine) AT 30:00:00 : #links=193 #nodes=152
2023-08-21T15:20:09,380  INFO QSim:566 SIMULATION (NEW QSim) AT 30:00:00 : #Veh=83387 lost=0 simT=86400.0s realT=15s; (s/r): 5760.0
2023-08-21T15:20:09,636  INFO AbstractController$9:235 ### ITERATION 0 fires after mobsim event
2023-08-21T15:20:09,636  INFO ControlerListenerManagerImpl:249 calling notifyAfterMobsim on org.matsim.analysis.LegTimesControlerListener
2023-08-21T15:20:09,637  INFO Gbl:192 Thread performance: Thread=class org.matsim.core.events.SimStepParallelEventsManagerImpl$ProcessEventsRunnable0  cpu-time=5.573884sec
2023-08-21T15:20:09,638  INFO LegTimesControlerListener:51 [0] average trip (probably: leg) duration is: 1921 seconds = 00:32:01
2023-08-21T15:20:09,638  INFO ControlerListenerManagerImpl:249 calling notifyAfterMobsim on org.matsim.core.events.MobsimScopeEventHandling
2023-08-21T15:20:09,639  INFO ControlerListenerManagerImpl:249 calling notifyAfterMobsim on org.matsim.core.scoring.EventsToActivities$1
2023-08-21T15:20:09,644  INFO ControlerListenerManagerImpl:252 [it.0] all ControlerAfterMobsimListeners called.
2023-08-21T15:20:09,644  INFO AbstractController$4:160 ### ITERATION 0 fires scoring event
2023-08-21T15:20:09,644  INFO ControlerListenerManagerImpl:184 calling notifyScoring on org.matsim.core.scoring.PlansScoringImpl
2023-08-21T15:20:09,701  INFO NewScoreAssignerImpl:58 it: 0 msaStart: 150
2023-08-21T15:20:09,736  INFO ControlerListenerManagerImpl:195 [it.0] all ControlerScoringListeners called.
2023-08-21T15:20:09,737  INFO AbstractController$5:168 ### ITERATION 0 fires iteration end event
2023-08-21T15:20:09,737  INFO ControlerListenerManagerImpl:161 calling notifyIterationEnds on org.matsim.core.controler.corelisteners.EventsHandlingImpl
2023-08-21T15:20:09,739  INFO EventsManagerImpl:159 removing Event-Handler: org.matsim.core.events.algorithms.EventWriterXML
2023-08-21T15:20:09,739  INFO EventsManagerImpl:159 removing Event-Handler: org.matsim.core.events.algorithms.EventWriterXML
2023-08-21T15:20:09,739  INFO ControlerListenerManagerImpl:161 calling notifyIterationEnds on org.matsim.core.scoring.PlansScoringImpl
2023-08-21T15:20:09,769  INFO ControlerListenerManagerImpl:168 calling notifyIterationEnds on org.matsim.counts.CountsControlerListener
2023-08-21T15:20:09,769  INFO ControlerListenerManagerImpl:168 calling notifyIterationEnds on org.matsim.analysis.ModeStatsControlerListener
2023-08-21T15:20:09,820  INFO ModeStatsControlerListener:145 Mode shares over all 168220.0 trips found. MainModeIdentifier: class org.matsim.core.router.RoutingModeMainModeIdentifier
2023-08-21T15:20:09,820  INFO ModeStatsControlerListener:152 -- mode share of mode car = 0.7818095351325645
2023-08-21T15:20:09,820  INFO ModeStatsControlerListener:152 -- mode share of mode pt = 0.2181904648674355
2023-08-21T15:20:09,820  INFO ControlerListenerManagerImpl:168 calling notifyIterationEnds on org.matsim.analysis.ScoreStatsControlerListener
2023-08-21T15:20:09,844  INFO ScoreStatsControlerListener:182 -- avg. score of the executed plan of each agent: -32.380297997524124
2023-08-21T15:20:09,844  INFO ScoreStatsControlerListener:183 -- avg. score of the worst plan of each agent: -32.380297997524124
2023-08-21T15:20:09,844  INFO ScoreStatsControlerListener:184 -- avg. of the avg. plan score per agent: -32.380297997524124
2023-08-21T15:20:09,844  INFO ScoreStatsControlerListener:185 -- avg. score of the best plan of each agent: -32.380297997524124
2023-08-21T15:20:09,846  INFO ControlerListenerManagerImpl:168 calling notifyIterationEnds on org.matsim.analysis.IterationTravelStatsControlerListener
2023-08-21T15:20:09,903  INFO TravelDistanceStats:144 -- average leg distance per plan (executed plans only): 2062.5382808464665 meters
[...]
2023-08-21T15:23:10,682  INFO Counter:70 [PlanMutateTimeAllocationSimplified] handled plan # 32
2023-08-21T15:23:10,682  INFO Counter:70 [PlanMutateTimeAllocationSimplified] handled plan # 64
2023-08-21T15:23:10,682  INFO Counter:70 [PlanMutateTimeAllocationSimplified] handled plan # 128
2023-08-21T15:23:10,682  INFO Counter:70 [PlanMutateTimeAllocationSimplified] handled plan # 256
2023-08-21T15:23:10,683  INFO AbstractMultithreadedModule:157 [PlanMutateTimeAllocationSimplified] all 40 threads finished.
2023-08-21T15:23:10,683  INFO GenericPlanStrategyImpl:127 Plan-Strategy finished, 475 plans handled. Strategy: RandomPlanSelector_TimeAllocationMutatorModule
2023-08-21T15:23:10,683  INFO GenericPlanStrategyImpl:127 Plan-Strategy finished, 34106 plans handled. Strategy: ExpBetaPlanChanger
2023-08-21T15:23:10,684  INFO AbstractMultithreadedModule:142 [ChooseRandomLegModeForSubtour] starting 40 threads, handling 4851 plans
2023-08-21T15:23:10,684  INFO Counter:70 [ChooseRandomLegModeForSubtour] handled plan # 1
2023-08-21T15:23:10,684  INFO Counter:70 [ChooseRandomLegModeForSubtour] handled plan # 2
2023-08-21T15:23:10,684  INFO Counter:70 [ChooseRandomLegModeForSubtour] handled plan # 4
2023-08-21T15:23:10,684  INFO Counter:70 [ChooseRandomLegModeForSubtour] handled plan # 8
2023-08-21T15:23:10,684  INFO Counter:70 [ChooseRandomLegModeForSubtour] handled plan # 16
2023-08-21T15:23:10,684  INFO Counter:70 [ChooseRandomLegModeForSubtour] handled plan # 32
2023-08-21T15:23:10,684  INFO Counter:70 [ChooseRandomLegModeForSubtour] handled plan # 64
2023-08-21T15:23:10,684  INFO Counter:70 [ChooseRandomLegModeForSubtour] handled plan # 128
2023-08-21T15:23:10,684  INFO Counter:70 [ChooseRandomLegModeForSubtour] handled plan # 256
2023-08-21T15:23:10,684  INFO Counter:70 [ChooseRandomLegModeForSubtour] handled plan # 512
2023-08-21T15:23:10,685  INFO Counter:70 [ChooseRandomLegModeForSubtour] handled plan # 1024
2023-08-21T15:23:10,686  INFO Counter:70 [ChooseRandomLegModeForSubtour] handled plan # 2048
2023-08-21T15:23:10,688  INFO Counter:70 [ChooseRandomLegModeForSubtour] handled plan # 4096
2023-08-21T15:23:10,689  INFO AbstractMultithreadedModule:157 [ChooseRandomLegModeForSubtour] all 40 threads finished.
2023-08-21T15:23:10,690  INFO AbstractMultithreadedModule:142 [PlanRouter] starting 40 threads, handling 4851 plans
2023-08-21T15:23:10,690  INFO Counter:70 [PlanRouter] handled plan # 1
2023-08-21T15:23:10,690  INFO Counter:70 [PlanRouter] handled plan # 2
2023-08-21T15:23:10,690  INFO Counter:70 [PlanRouter] handled plan # 4
2023-08-21T15:23:10,690  INFO Counter:70 [PlanRouter] handled plan # 8
2023-08-21T15:23:10,690  INFO Counter:70 [PlanRouter] handled plan # 16
2023-08-21T15:23:10,690  INFO Counter:70 [PlanRouter] handled plan # 32
2023-08-21T15:23:10,690  INFO Counter:70 [PlanRouter] handled plan # 64
2023-08-21T15:23:10,690  INFO Counter:70 [PlanRouter] handled plan # 128
2023-08-21T15:23:10,691  INFO Counter:70 [PlanRouter] handled plan # 256
2023-08-21T15:23:10,691  INFO Counter:70 [PlanRouter] handled plan # 512
2023-08-21T15:23:10,693  INFO Counter:70 [PlanRouter] handled plan # 1024
2023-08-21T15:23:10,734  INFO Counter:70 [PlanRouter] handled plan # 2048
2023-08-21T15:23:10,740  INFO Counter:70 [PlanRouter] handled plan # 4096
2023-08-21T15:23:10,744  INFO AbstractMultithreadedModule:157 [PlanRouter] all 40 threads finished.
2023-08-21T15:23:10,744  INFO GenericPlanStrategyImpl:127 Plan-Strategy finished, 4851 plans handled. Strategy: RandomPlanSelector_SubtourModeChoice_ReRoute
2023-08-21T15:23:10,744  INFO AbstractMultithreadedModule:142 [PlanRouter] starting 40 threads, handling 4873 plans
2023-08-21T15:23:10,744  INFO Counter:70 [PlanRouter] handled plan # 2
2023-08-21T15:23:10,744  INFO Counter:70 [PlanRouter] handled plan # 1
2023-08-21T15:23:10,744  INFO Counter:70 [PlanRouter] handled plan # 4
2023-08-21T15:23:10,744  INFO Counter:70 [PlanRouter] handled plan # 8
2023-08-21T15:23:10,744  INFO Counter:70 [PlanRouter] handled plan # 16
2023-08-21T15:23:10,744  INFO Counter:70 [PlanRouter] handled plan # 32
2023-08-21T15:23:10,744  INFO Counter:70 [PlanRouter] handled plan # 64
2023-08-21T15:23:10,745  INFO Counter:70 [PlanRouter] handled plan # 128
2023-08-21T15:23:10,745  INFO Counter:70 [PlanRouter] handled plan # 256
2023-08-21T15:23:10,746  INFO Counter:70 [PlanRouter] handled plan # 512
2023-08-21T15:23:10,749  INFO Counter:70 [PlanRouter] handled plan # 1024
2023-08-21T15:23:10,753  INFO Counter:70 [PlanRouter] handled plan # 2048
2023-08-21T15:23:10,762  INFO Counter:70 [PlanRouter] handled plan # 4096
2023-08-21T15:23:10,768  INFO AbstractMultithreadedModule:157 [PlanRouter] all 40 threads finished.
2023-08-21T15:23:10,768  INFO GenericPlanStrategyImpl:127 Plan-Strategy finished, 4873 plans handled. Strategy: RandomPlanSelector_ReRoute
2023-08-21T15:23:10,768  INFO AbstractMultithreadedModule:142 [PlanMutateTimeAllocationSimplified] starting 40 threads, handling 4906 plans
2023-08-21T15:23:10,768  INFO Counter:70 [PlanMutateTimeAllocationSimplified] handled plan # 1
2023-08-21T15:23:10,768  INFO Counter:70 [PlanMutateTimeAllocationSimplified] handled plan # 4
2023-08-21T15:23:10,768  INFO Counter:70 [PlanMutateTimeAllocationSimplified] handled plan # 8
2023-08-21T15:23:10,768  INFO Counter:70 [PlanMutateTimeAllocationSimplified] handled plan # 16
2023-08-21T15:23:10,768  INFO Counter:70 [PlanMutateTimeAllocationSimplified] handled plan # 2
2023-08-21T15:23:10,768  INFO Counter:70 [PlanMutateTimeAllocationSimplified] handled plan # 64
2023-08-21T15:23:10,768  INFO Counter:70 [PlanMutateTimeAllocationSimplified] handled plan # 128
2023-08-21T15:23:10,768  INFO Counter:70 [PlanMutateTimeAllocationSimplified] handled plan # 32
2023-08-21T15:23:10,768  INFO Counter:70 [PlanMutateTimeAllocationSimplified] handled plan # 256
2023-08-21T15:23:10,768  INFO Counter:70 [PlanMutateTimeAllocationSimplified] handled plan # 512
2023-08-21T15:23:10,768  INFO Counter:70 [PlanMutateTimeAllocationSimplified] handled plan # 1024
2023-08-21T15:23:10,769  INFO Counter:70 [PlanMutateTimeAllocationSimplified] handled plan # 2048
2023-08-21T15:23:10,769  INFO Counter:70 [PlanMutateTimeAllocationSimplified] handled plan # 4096
2023-08-21T15:23:10,770  INFO AbstractMultithreadedModule:157 [PlanMutateTimeAllocationSimplified] all 40 threads finished.
2023-08-21T15:23:10,770  INFO GenericPlanStrategyImpl:127 Plan-Strategy finished, 4906 plans handled. Strategy: RandomPlanSelector_TimeAllocationMutatorModule
2023-08-21T15:23:10,770  INFO ControlerListenerManagerImpl:214 [it.15] all ControlerReplanningListeners called.
2023-08-21T15:23:10,770  INFO ControlerListenerManagerImpl:225 calling notifyBeforeMobsim on org.matsim.core.controler.corelisteners.EventsHandlingImpl
2023-08-21T15:23:10,770  INFO EventsManagerImpl:168 resetting Event-Handlers
2023-08-21T15:23:10,770  INFO EventsManagerImpl:175   org.matsim.core.trafficmonitoring.TravelTimeCalculator
2023-08-21T15:23:10,770  INFO EventsManagerImpl:175   org.matsim.analysis.VolumesAnalyzer
2023-08-21T15:23:10,770  INFO EventsManagerImpl:175   org.matsim.core.scoring.ScoringFunctionsForPopulation
2023-08-21T15:23:10,770  INFO EventsManagerImpl:175   org.matsim.analysis.LegHistogram
2023-08-21T15:23:10,770  INFO EventsManagerImpl:175   org.matsim.analysis.CalcLegTimes
2023-08-21T15:23:10,771  INFO EventsManagerImpl:175   ch.sbb.matsim.routing.pt.raptor.SwissRailRaptorFactory$$Lambda$275/0x0000000800fa6640
2023-08-21T15:23:10,771  INFO ControlerListenerManagerImpl:225 calling notifyBeforeMobsim on org.matsim.core.controler.corelisteners.PlansDumpingImpl
2023-08-21T15:23:10,771  INFO ControlerListenerManagerImpl:230 calling notifyBeforeMobsim on org.matsim.core.population.VspPlansCleaner
2023-08-21T15:23:10,808  INFO ControlerListenerManagerImpl:233 [it.15] all ControlerBeforeMobsimListeners called.
2023-08-21T15:23:10,808  INFO PrepareForMobsimImpl:87 Network seems to be multimodal. Create car-only network which is handed over to PersonPrepareForSim.
2023-08-21T15:23:10,808  INFO NetworkImpl:165  node # 1
2023-08-21T15:23:10,808  INFO NetworkImpl:165  node # 4
2023-08-21T15:23:10,808  INFO NetworkImpl:165  node # 16
2023-08-21T15:23:10,808  INFO NetworkImpl:165  node # 64
2023-08-21T15:23:10,808  INFO NetworkImpl:165  node # 256
2023-08-21T15:23:10,808  INFO NetworkImpl:161  link # 1
2023-08-21T15:23:10,808  INFO NetworkImpl:161  link # 4
2023-08-21T15:23:10,808  INFO NetworkImpl:161  link # 16
2023-08-21T15:23:10,808  INFO NetworkImpl:161  link # 64
2023-08-21T15:23:10,808  INFO NetworkImpl:161  link # 256
2023-08-21T15:23:10,820  INFO Counter:70 [PersonPrepareForSim] handled person # 1
2023-08-21T15:23:10,820  INFO Counter:70 [PersonPrepareForSim] handled person # 2
2023-08-21T15:23:10,820  INFO Counter:70 [PersonPrepareForSim] handled person # 4
2023-08-21T15:23:10,820  INFO Counter:70 [PersonPrepareForSim] handled person # 16
2023-08-21T15:23:10,820  INFO Counter:70 [PersonPrepareForSim] handled person # 32
2023-08-21T15:23:10,820  INFO Counter:70 [PersonPrepareForSim] handled person # 8
2023-08-21T15:23:10,820  INFO Counter:70 [PersonPrepareForSim] handled person # 64
2023-08-21T15:23:10,820  INFO Counter:70 [PersonPrepareForSim] handled person # 128
2023-08-21T15:23:10,820  INFO Counter:70 [PersonPrepareForSim] handled person # 256
2023-08-21T15:23:10,821  INFO Counter:70 [PersonPrepareForSim] handled person # 512
2023-08-21T15:23:10,821  INFO Counter:70 [PersonPrepareForSim] handled person # 1024
2023-08-21T15:23:10,823  INFO Counter:70 [PersonPrepareForSim] handled person # 2048
2023-08-21T15:23:10,827  INFO Counter:70 [PersonPrepareForSim] handled person # 4096
2023-08-21T15:23:10,834  INFO Counter:70 [PersonPrepareForSim] handled person # 8192
2023-08-21T15:23:10,868  INFO Counter:70 [PersonPrepareForSim] handled person # 16384
2023-08-21T15:23:10,897  INFO Counter:70 [PersonPrepareForSim] handled person # 32768
2023-08-21T15:23:10,961  INFO Counter:70 [PersonPrepareForSim] handled person # 65536
2023-08-21T15:23:10,998  INFO Counter:75 [PersonPrepareForSim] handled person # 84110
2023-08-21T15:23:11,003  INFO MobsimListenerManager:50 calling addQueueSimulationListener
2023-08-21T15:23:11,004  INFO MobsimListenerManager:54   assigned class org.matsim.core.mobsim.framework.listeners.MobsimListener to interface org.matsim.vis.snapshotwriters.SnapshotWriterManager
2023-08-21T15:23:11,004  INFO MobsimListenerManager:54   assigned class org.matsim.core.mobsim.framework.listeners.MobsimListener to interface org.matsim.core.mobsim.framework.listeners.MobsimInitializedListener
2023-08-21T15:23:11,004  INFO MobsimListenerManager:54   assigned class org.matsim.core.mobsim.framework.listeners.MobsimListener to interface org.matsim.core.mobsim.framework.listeners.MobsimBeforeCleanupListener
2023-08-21T15:23:11,004  INFO MobsimListenerManager:54   assigned class org.matsim.core.mobsim.framework.listeners.MobsimListener to interface org.matsim.core.mobsim.framework.listeners.MobsimAfterSimStepListener
2023-08-21T15:23:11,004  INFO MobsimListenerManager:54   assigned class org.matsim.core.mobsim.framework.listeners.MobsimListener to interface org.matsim.core.mobsim.framework.listeners.MobsimListener
2023-08-21T15:23:11,005  INFO QSimProvider:131 Added MobsimEngine class org.matsim.core.mobsim.qsim.ActivityEngineDefaultImpl
2023-08-21T15:23:11,005  INFO QSimProvider:137 Added Activityhandler class org.matsim.core.mobsim.qsim.ActivityEngineDefaultImpl
2023-08-21T15:23:11,005  INFO QSimProvider:143 Added DepartureHandler class org.matsim.core.mobsim.qsim.qnetsimengine.VehicularDepartureHandler
2023-08-21T15:23:11,005  INFO QSimProvider:131 Added MobsimEngine class org.matsim.core.mobsim.qsim.qnetsimengine.QNetsimEngineWithThreadpool
2023-08-21T15:23:11,005  INFO QSimProvider:131 Added MobsimEngine class org.matsim.core.mobsim.qsim.DefaultTeleportationEngine
2023-08-21T15:23:11,005  INFO QSimProvider:143 Added DepartureHandler class org.matsim.core.mobsim.qsim.DefaultTeleportationEngine
2023-08-21T15:23:11,005  INFO QSimProvider:149 Added AgentSource class org.matsim.core.mobsim.qsim.agents.PopulationAgentSource
2023-08-21T15:23:11,005  INFO MobsimListenerManager:50 calling addQueueSimulationListener
2023-08-21T15:23:11,005  INFO MobsimListenerManager:54   assigned class org.matsim.core.mobsim.framework.listeners.MobsimListener to interface org.matsim.core.mobsim.framework.listeners.MobsimBeforeSimStepListener
2023-08-21T15:23:11,005  INFO MobsimListenerManager:54   assigned class org.matsim.core.mobsim.framework.listeners.MobsimListener to interface org.matsim.core.mobsim.qsim.messagequeueengine.MessageQueueEngine
2023-08-21T15:23:11,005  INFO MobsimListenerManager:54   assigned class org.matsim.core.mobsim.framework.listeners.MobsimListener to interface org.matsim.core.mobsim.framework.listeners.MobsimListener
2023-08-21T15:23:11,005  INFO QSimProvider:155 Added MobsimListener class org.matsim.core.mobsim.qsim.messagequeueengine.MessageQueueEngine
2023-08-21T15:23:11,005  INFO QSimProvider:131 Added MobsimEngine class org.matsim.core.mobsim.qsim.pt.TransitQSimEngine
2023-08-21T15:23:11,005  INFO QSimProvider:143 Added DepartureHandler class org.matsim.core.mobsim.qsim.pt.TransitQSimEngine
2023-08-21T15:23:11,005  INFO QSimProvider:149 Added AgentSource class org.matsim.core.mobsim.qsim.pt.TransitQSimEngine
2023-08-21T15:23:11,146  INFO ReconstructingUmlaufBuilder:133 Generating UmlaufStuecke ...
2023-08-21T15:23:11,146  INFO ReconstructingUmlaufBuilder:146 ... done generating UmlaufStuecke
2023-08-21T15:23:11,159  INFO AbstractQNetsimEngine:428 Assigned 8 nodes and 9 links to QSimEngineRunner #0
2023-08-21T15:23:11,159  INFO AbstractQNetsimEngine:428 Assigned 8 nodes and 17 links to QSimEngineRunner #1
2023-08-21T15:23:11,159  INFO AbstractQNetsimEngine:428 Assigned 7 nodes and 9 links to QSimEngineRunner #2
2023-08-21T15:23:11,159  INFO AbstractQNetsimEngine:428 Assigned 7 nodes and 7 links to QSimEngineRunner #3
2023-08-21T15:23:11,159  INFO AbstractQNetsimEngine:428 Assigned 7 nodes and 7 links to QSimEngineRunner #4
2023-08-21T15:23:11,159  INFO AbstractQNetsimEngine:428 Assigned 7 nodes and 7 links to QSimEngineRunner #5
2023-08-21T15:23:11,159  INFO AbstractQNetsimEngine:428 Assigned 7 nodes and 7 links to QSimEngineRunner #6
2023-08-21T15:23:11,159  INFO AbstractQNetsimEngine:428 Assigned 7 nodes and 8 links to QSimEngineRunner #7
2023-08-21T15:23:11,159  INFO AbstractQNetsimEngine:428 Assigned 7 nodes and 9 links to QSimEngineRunner #8
2023-08-21T15:23:11,159  INFO AbstractQNetsimEngine:428 Assigned 7 nodes and 7 links to QSimEngineRunner #9
2023-08-21T15:23:11,159  INFO AbstractQNetsimEngine:428 Assigned 7 nodes and 7 links to QSimEngineRunner #10
2023-08-21T15:23:11,159  INFO AbstractQNetsimEngine:428 Assigned 7 nodes and 9 links to QSimEngineRunner #11
2023-08-21T15:23:11,159  INFO AbstractQNetsimEngine:428 Assigned 7 nodes and 7 links to QSimEngineRunner #12
2023-08-21T15:23:11,159  INFO AbstractQNetsimEngine:428 Assigned 7 nodes and 7 links to QSimEngineRunner #13
2023-08-21T15:23:11,159  INFO AbstractQNetsimEngine:428 Assigned 7 nodes and 8 links to QSimEngineRunner #14
2023-08-21T15:23:11,159  INFO AbstractQNetsimEngine:428 Assigned 7 nodes and 13 links to QSimEngineRunner #15
2023-08-21T15:23:11,159  INFO AbstractQNetsimEngine:428 Assigned 7 nodes and 10 links to QSimEngineRunner #16
2023-08-21T15:23:11,159  INFO AbstractQNetsimEngine:428 Assigned 7 nodes and 9 links to QSimEngineRunner #17
2023-08-21T15:23:11,159  INFO AbstractQNetsimEngine:428 Assigned 7 nodes and 9 links to QSimEngineRunner #18
2023-08-21T15:23:11,159  INFO AbstractQNetsimEngine:428 Assigned 7 nodes and 9 links to QSimEngineRunner #19
2023-08-21T15:23:11,159  INFO AbstractQNetsimEngine:428 Assigned 7 nodes and 7 links to QSimEngineRunner #20
2023-08-21T15:23:11,159  INFO AbstractQNetsimEngine:428 Assigned 7 nodes and 10 links to QSimEngineRunner #21
2023-08-21T15:23:11,159  INFO AbstractQNetsimEngine:428 Assigned 7 nodes and 7 links to QSimEngineRunner #22
2023-08-21T15:23:11,159  INFO AbstractQNetsimEngine:428 Assigned 7 nodes and 7 links to QSimEngineRunner #23
2023-08-21T15:23:11,159  INFO AbstractQNetsimEngine:428 Assigned 7 nodes and 7 links to QSimEngineRunner #24
2023-08-21T15:23:11,159  INFO AbstractQNetsimEngine:428 Assigned 7 nodes and 7 links to QSimEngineRunner #25
2023-08-21T15:23:11,159  INFO AbstractQNetsimEngine:428 Assigned 7 nodes and 10 links to QSimEngineRunner #26
2023-08-21T15:23:11,159  INFO AbstractQNetsimEngine:428 Assigned 7 nodes and 7 links to QSimEngineRunner #27
2023-08-21T15:23:11,159  INFO AbstractQNetsimEngine:428 Assigned 7 nodes and 9 links to QSimEngineRunner #28
2023-08-21T15:23:11,159  INFO AbstractQNetsimEngine:428 Assigned 7 nodes and 7 links to QSimEngineRunner #29
2023-08-21T15:23:11,159  INFO AbstractQNetsimEngine:428 Assigned 7 nodes and 9 links to QSimEngineRunner #30
2023-08-21T15:23:11,159  INFO AbstractQNetsimEngine:428 Assigned 7 nodes and 9 links to QSimEngineRunner #31
2023-08-21T15:23:11,159  INFO AbstractQNetsimEngine:428 Assigned 7 nodes and 9 links to QSimEngineRunner #32
2023-08-21T15:23:11,159  INFO AbstractQNetsimEngine:428 Assigned 7 nodes and 7 links to QSimEngineRunner #33
2023-08-21T15:23:11,159  INFO AbstractQNetsimEngine:428 Assigned 7 nodes and 9 links to QSimEngineRunner #34
2023-08-21T15:23:11,159  INFO AbstractQNetsimEngine:428 Assigned 7 nodes and 7 links to QSimEngineRunner #35
2023-08-21T15:23:11,159  INFO AbstractQNetsimEngine:428 Assigned 7 nodes and 7 links to QSimEngineRunner #36
2023-08-21T15:23:11,159  INFO AbstractQNetsimEngine:428 Assigned 7 nodes and 7 links to QSimEngineRunner #37
2023-08-21T15:23:11,159  INFO AbstractQNetsimEngine:428 Assigned 7 nodes and 10 links to QSimEngineRunner #38
2023-08-21T15:23:11,159  INFO AbstractQNetsimEngine:428 Assigned 7 nodes and 7 links to QSimEngineRunner #39
2023-08-21T15:23:11,208  INFO AbstractQNetsimEngine:366 SIMULATION (QNetsimEngine) AT 05:06:02 : #links=0 #nodes=0
2023-08-21T15:23:11,209  INFO QSim:566 SIMULATION (NEW QSim) AT 05:06:02 : #Veh=86150 lost=0 simT=0.0s realT=0s; (s/r): 0.0
2023-08-21T15:23:11,431  INFO AbstractQNetsimEngine:366 SIMULATION (QNetsimEngine) AT 06:00:00 : #links=47 #nodes=5
2023-08-21T15:23:11,431  INFO QSim:566 SIMULATION (NEW QSim) AT 06:00:00 : #Veh=86150 lost=0 simT=3238.0s realT=0s; (s/r): Infinity
2023-08-21T15:23:11,893  INFO AbstractQNetsimEngine:366 SIMULATION (QNetsimEngine) AT 07:00:00 : #links=258 #nodes=58
2023-08-21T15:23:11,893  INFO QSim:566 SIMULATION (NEW QSim) AT 07:00:00 : #Veh=86045 lost=0 simT=6838.0s realT=0s; (s/r): Infinity
2023-08-21T15:23:13,368  INFO AbstractQNetsimEngine:366 SIMULATION (QNetsimEngine) AT 08:00:00 : #links=284 #nodes=109
2023-08-21T15:23:13,368  INFO QSim:566 SIMULATION (NEW QSim) AT 08:00:00 : #Veh=85938 lost=0 simT=10438.0s realT=2s; (s/r): 5219.0
2023-08-21T15:23:14,181  INFO AbstractQNetsimEngine:366 SIMULATION (QNetsimEngine) AT 09:00:00 : #links=147 #nodes=12
2023-08-21T15:23:14,181  INFO QSim:566 SIMULATION (NEW QSim) AT 09:00:00 : #Veh=85694 lost=0 simT=14038.0s realT=3s; (s/r): 4679.333333333333
2023-08-21T15:23:14,541  INFO AbstractQNetsimEngine:366 SIMULATION (QNetsimEngine) AT 10:00:00 : #links=154 #nodes=16
2023-08-21T15:23:14,541  INFO QSim:566 SIMULATION (NEW QSim) AT 10:00:00 : #Veh=84337 lost=0 simT=17638.0s realT=3s; (s/r): 5879.333333333333
2023-08-21T15:23:14,888  INFO AbstractQNetsimEngine:366 SIMULATION (QNetsimEngine) AT 11:00:00 : #links=147 #nodes=14
2023-08-21T15:23:14,888  INFO QSim:566 SIMULATION (NEW QSim) AT 11:00:00 : #Veh=82040 lost=0 simT=21238.0s realT=3s; (s/r): 7079.333333333333
2023-08-21T15:23:15,400  INFO AbstractQNetsimEngine:366 SIMULATION (QNetsimEngine) AT 12:00:00 : #links=152 #nodes=19
2023-08-21T15:23:15,400  INFO QSim:566 SIMULATION (NEW QSim) AT 12:00:00 : #Veh=79731 lost=0 simT=24838.0s realT=4s; (s/r): 6209.5
